
---------- Begin Simulation Statistics ----------
simSeconds                                   0.039627                       # Number of seconds simulated (Second)
simTicks                                  39626787879                       # Number of ticks simulated (Tick)
finalTick                                5168626856010                       # Number of ticks from beginning of simulation (restored from checkpoints and never reset) (Tick)
simFreq                                  1000000000000                       # The number of ticks per simulated second ((Tick/Second))
hostSeconds                                    917.86                       # Real time elapsed on the host (Second)
hostTickRate                                 43173129                       # The number of ticks simulated per host second (ticks/s) ((Tick/Second))
hostMemory                                    1304312                       # Number of bytes of host memory used (Byte)
simInsts                                    116539652                       # Number of instructions simulated (Count)
simOps                                      201845762                       # Number of ops (including micro ops) simulated (Count)
hostInstRate                                   126969                       # Simulator instruction rate (inst/s) ((Count/Second))
hostOpRate                                     219910                       # Simulator op (including micro ops) rate (op/s) ((Count/Second))
system.clk_domain.clock                          1000                       # Clock period in ticks (Tick)
system.cpu0.numCycles                       118999128                       # Number of cpu cycles simulated (Cycle)
system.cpu0.numWorkItemsStarted                     0                       # Number of work items this cpu started (Count)
system.cpu0.numWorkItemsCompleted                   0                       # Number of work items this cpu completed (Count)
system.cpu0.exec_context.thread_0.numInsts      8819190                       # Number of instructions committed (Count)
system.cpu0.exec_context.thread_0.numOps     15615089                       # Number of ops (including micro ops) committed (Count)
system.cpu0.exec_context.thread_0.numIntAluAccesses     15487445                       # Number of integer alu accesses (Count)
system.cpu0.exec_context.thread_0.numFpAluAccesses        16278                       # Number of float alu accesses (Count)
system.cpu0.exec_context.thread_0.numVecAluAccesses            0                       # Number of vector alu accesses (Count)
system.cpu0.exec_context.thread_0.numCallsReturns       415030                       # Number of times a function call or return occured (Count)
system.cpu0.exec_context.thread_0.numCondCtrlInsts      1356024                       # Number of instructions that are conditional controls (Count)
system.cpu0.exec_context.thread_0.numIntInsts     15487445                       # Number of integer instructions (Count)
system.cpu0.exec_context.thread_0.numFpInsts        16278                       # Number of float instructions (Count)
system.cpu0.exec_context.thread_0.numVecInsts            0                       # Number of vector instructions (Count)
system.cpu0.exec_context.thread_0.numIntRegReads     19645617                       # Number of times the integer registers were read (Count)
system.cpu0.exec_context.thread_0.numIntRegWrites     11040066                       # Number of times the integer registers were written (Count)
system.cpu0.exec_context.thread_0.numFpRegReads        10914                       # Number of times the floating registers were read (Count)
system.cpu0.exec_context.thread_0.numFpRegWrites         8848                       # Number of times the floating registers were written (Count)
system.cpu0.exec_context.thread_0.numVecRegReads            0                       # Number of times the vector registers were read (Count)
system.cpu0.exec_context.thread_0.numVecRegWrites            0                       # Number of times the vector registers were written (Count)
system.cpu0.exec_context.thread_0.numVecPredRegReads            0                       # Number of times the predicate registers were read (Count)
system.cpu0.exec_context.thread_0.numVecPredRegWrites            0                       # Number of times the predicate registers were written (Count)
system.cpu0.exec_context.thread_0.numCCRegReads      8221950                       # Number of times the CC registers were read (Count)
system.cpu0.exec_context.thread_0.numCCRegWrites      4391872                       # Number of times the CC registers were written (Count)
system.cpu0.exec_context.thread_0.numMiscRegReads      7281001                       # Number of times the Misc registers were read (Count)
system.cpu0.exec_context.thread_0.numMiscRegWrites        12599                       # Number of times the Misc registers were written (Count)
system.cpu0.exec_context.thread_0.numMemRefs      3509071                       # Number of memory refs (Count)
system.cpu0.exec_context.thread_0.numLoadInsts      2263680                       # Number of load instructions (Count)
system.cpu0.exec_context.thread_0.numStoreInsts      1245391                       # Number of store instructions (Count)
system.cpu0.exec_context.thread_0.numIdleCycles 82379497.032247                       # Number of idle cycles (Cycle)
system.cpu0.exec_context.thread_0.numBusyCycles 36619630.967753                       # Number of busy cycles (Cycle)
system.cpu0.exec_context.thread_0.notIdleFraction     0.307730                       # Percentage of non-idle cycles (Ratio)
system.cpu0.exec_context.thread_0.idleFraction     0.692270                       # Percentage of idle cycles (Ratio)
system.cpu0.exec_context.thread_0.numBranches      1977496                       # Number of branches fetched (Count)
system.cpu0.exec_context.thread_0.statExecutedInstType::No_OpClass        48786      0.31%      0.31% # Class of executed instruction. (Count)
system.cpu0.exec_context.thread_0.statExecutedInstType::IntAlu     12029980     76.96%     77.27% # Class of executed instruction. (Count)
system.cpu0.exec_context.thread_0.statExecutedInstType::IntMult        39970      0.26%     77.53% # Class of executed instruction. (Count)
system.cpu0.exec_context.thread_0.statExecutedInstType::IntDiv         1773      0.01%     77.54% # Class of executed instruction. (Count)
system.cpu0.exec_context.thread_0.statExecutedInstType::FloatAdd           95      0.00%     77.54% # Class of executed instruction. (Count)
system.cpu0.exec_context.thread_0.statExecutedInstType::FloatCmp            0      0.00%     77.54% # Class of executed instruction. (Count)
system.cpu0.exec_context.thread_0.statExecutedInstType::FloatCvt            0      0.00%     77.54% # Class of executed instruction. (Count)
system.cpu0.exec_context.thread_0.statExecutedInstType::FloatMult            0      0.00%     77.54% # Class of executed instruction. (Count)
system.cpu0.exec_context.thread_0.statExecutedInstType::FloatMultAcc            0      0.00%     77.54% # Class of executed instruction. (Count)
system.cpu0.exec_context.thread_0.statExecutedInstType::FloatDiv            0      0.00%     77.54% # Class of executed instruction. (Count)
system.cpu0.exec_context.thread_0.statExecutedInstType::FloatMisc            0      0.00%     77.54% # Class of executed instruction. (Count)
system.cpu0.exec_context.thread_0.statExecutedInstType::FloatSqrt            0      0.00%     77.54% # Class of executed instruction. (Count)
system.cpu0.exec_context.thread_0.statExecutedInstType::SimdAdd            0      0.00%     77.54% # Class of executed instruction. (Count)
system.cpu0.exec_context.thread_0.statExecutedInstType::SimdAddAcc            0      0.00%     77.54% # Class of executed instruction. (Count)
system.cpu0.exec_context.thread_0.statExecutedInstType::SimdAlu          186      0.00%     77.54% # Class of executed instruction. (Count)
system.cpu0.exec_context.thread_0.statExecutedInstType::SimdCmp            0      0.00%     77.54% # Class of executed instruction. (Count)
system.cpu0.exec_context.thread_0.statExecutedInstType::SimdCvt          376      0.00%     77.54% # Class of executed instruction. (Count)
system.cpu0.exec_context.thread_0.statExecutedInstType::SimdMisc         1027      0.01%     77.55% # Class of executed instruction. (Count)
system.cpu0.exec_context.thread_0.statExecutedInstType::SimdMult            0      0.00%     77.55% # Class of executed instruction. (Count)
system.cpu0.exec_context.thread_0.statExecutedInstType::SimdMultAcc            0      0.00%     77.55% # Class of executed instruction. (Count)
system.cpu0.exec_context.thread_0.statExecutedInstType::SimdShift            0      0.00%     77.55% # Class of executed instruction. (Count)
system.cpu0.exec_context.thread_0.statExecutedInstType::SimdShiftAcc            0      0.00%     77.55% # Class of executed instruction. (Count)
system.cpu0.exec_context.thread_0.statExecutedInstType::SimdDiv            0      0.00%     77.55% # Class of executed instruction. (Count)
system.cpu0.exec_context.thread_0.statExecutedInstType::SimdSqrt            0      0.00%     77.55% # Class of executed instruction. (Count)
system.cpu0.exec_context.thread_0.statExecutedInstType::SimdFloatAdd            4      0.00%     77.55% # Class of executed instruction. (Count)
system.cpu0.exec_context.thread_0.statExecutedInstType::SimdFloatAlu            0      0.00%     77.55% # Class of executed instruction. (Count)
system.cpu0.exec_context.thread_0.statExecutedInstType::SimdFloatCmp            0      0.00%     77.55% # Class of executed instruction. (Count)
system.cpu0.exec_context.thread_0.statExecutedInstType::SimdFloatCvt            5      0.00%     77.55% # Class of executed instruction. (Count)
system.cpu0.exec_context.thread_0.statExecutedInstType::SimdFloatDiv            2      0.00%     77.55% # Class of executed instruction. (Count)
system.cpu0.exec_context.thread_0.statExecutedInstType::SimdFloatMisc            0      0.00%     77.55% # Class of executed instruction. (Count)
system.cpu0.exec_context.thread_0.statExecutedInstType::SimdFloatMult            0      0.00%     77.55% # Class of executed instruction. (Count)
system.cpu0.exec_context.thread_0.statExecutedInstType::SimdFloatMultAcc            0      0.00%     77.55% # Class of executed instruction. (Count)
system.cpu0.exec_context.thread_0.statExecutedInstType::SimdFloatSqrt            0      0.00%     77.55% # Class of executed instruction. (Count)
system.cpu0.exec_context.thread_0.statExecutedInstType::SimdReduceAdd            0      0.00%     77.55% # Class of executed instruction. (Count)
system.cpu0.exec_context.thread_0.statExecutedInstType::SimdReduceAlu            0      0.00%     77.55% # Class of executed instruction. (Count)
system.cpu0.exec_context.thread_0.statExecutedInstType::SimdReduceCmp            0      0.00%     77.55% # Class of executed instruction. (Count)
system.cpu0.exec_context.thread_0.statExecutedInstType::SimdFloatReduceAdd            0      0.00%     77.55% # Class of executed instruction. (Count)
system.cpu0.exec_context.thread_0.statExecutedInstType::SimdFloatReduceCmp            0      0.00%     77.55% # Class of executed instruction. (Count)
system.cpu0.exec_context.thread_0.statExecutedInstType::SimdAes            0      0.00%     77.55% # Class of executed instruction. (Count)
system.cpu0.exec_context.thread_0.statExecutedInstType::SimdAesMix            0      0.00%     77.55% # Class of executed instruction. (Count)
system.cpu0.exec_context.thread_0.statExecutedInstType::SimdSha1Hash            0      0.00%     77.55% # Class of executed instruction. (Count)
system.cpu0.exec_context.thread_0.statExecutedInstType::SimdSha1Hash2            0      0.00%     77.55% # Class of executed instruction. (Count)
system.cpu0.exec_context.thread_0.statExecutedInstType::SimdSha256Hash            0      0.00%     77.55% # Class of executed instruction. (Count)
system.cpu0.exec_context.thread_0.statExecutedInstType::SimdSha256Hash2            0      0.00%     77.55% # Class of executed instruction. (Count)
system.cpu0.exec_context.thread_0.statExecutedInstType::SimdShaSigma2            0      0.00%     77.55% # Class of executed instruction. (Count)
system.cpu0.exec_context.thread_0.statExecutedInstType::SimdShaSigma3            0      0.00%     77.55% # Class of executed instruction. (Count)
system.cpu0.exec_context.thread_0.statExecutedInstType::SimdPredAlu            0      0.00%     77.55% # Class of executed instruction. (Count)
system.cpu0.exec_context.thread_0.statExecutedInstType::MemRead      2256379     14.44%     91.99% # Class of executed instruction. (Count)
system.cpu0.exec_context.thread_0.statExecutedInstType::MemWrite      1238338      7.92%     99.91% # Class of executed instruction. (Count)
system.cpu0.exec_context.thread_0.statExecutedInstType::FloatMemRead         7249      0.05%     99.95% # Class of executed instruction. (Count)
system.cpu0.exec_context.thread_0.statExecutedInstType::FloatMemWrite         7053      0.05%    100.00% # Class of executed instruction. (Count)
system.cpu0.exec_context.thread_0.statExecutedInstType::IprAccess            0      0.00%    100.00% # Class of executed instruction. (Count)
system.cpu0.exec_context.thread_0.statExecutedInstType::InstPrefetch            0      0.00%    100.00% # Class of executed instruction. (Count)
system.cpu0.exec_context.thread_0.statExecutedInstType::total     15631223                       # Class of executed instruction. (Count)
system.cpu0.interrupts.clk_domain.clock          5328                       # Clock period in ticks (Tick)
system.cpu0.mmu.dtb.rdAccesses                2264402                       # TLB accesses on read requests (Count)
system.cpu0.mmu.dtb.wrAccesses                1250152                       # TLB accesses on write requests (Count)
system.cpu0.mmu.dtb.rdMisses                      173                       # TLB misses on read requests (Count)
system.cpu0.mmu.dtb.wrMisses                       74                       # TLB misses on write requests (Count)
system.cpu0.mmu.dtb.walker.power_state.pwrStateResidencyTicks::UNDEFINED 5168626856010                       # Cumulative time (in ticks) in various power states (Tick)
system.cpu0.mmu.itb.rdAccesses                      0                       # TLB accesses on read requests (Count)
system.cpu0.mmu.itb.wrAccesses               11635493                       # TLB accesses on write requests (Count)
system.cpu0.mmu.itb.rdMisses                        0                       # TLB misses on read requests (Count)
system.cpu0.mmu.itb.wrMisses                      197                       # TLB misses on write requests (Count)
system.cpu0.mmu.itb.walker.power_state.pwrStateResidencyTicks::UNDEFINED 5168626856010                       # Cumulative time (in ticks) in various power states (Tick)
system.cpu0.power_state.numTransitions             52                       # Number of power state transitions (Count)
system.cpu0.power_state.ticksClkGated::samples           26                       # Distribution of time spent in the clock gated state (Tick)
system.cpu0.power_state.ticksClkGated::mean 1055093334.076923                       # Distribution of time spent in the clock gated state (Tick)
system.cpu0.power_state.ticksClkGated::stdev 1592667111.127838                       # Distribution of time spent in the clock gated state (Tick)
system.cpu0.power_state.ticksClkGated::1000-5e+10           26    100.00%    100.00% # Distribution of time spent in the clock gated state (Tick)
system.cpu0.power_state.ticksClkGated::min_value      1213179                       # Distribution of time spent in the clock gated state (Tick)
system.cpu0.power_state.ticksClkGated::max_value   3998677986                       # Distribution of time spent in the clock gated state (Tick)
system.cpu0.power_state.ticksClkGated::total           26                       # Distribution of time spent in the clock gated state (Tick)
system.cpu0.power_state.pwrStateResidencyTicks::ON  12197291866                       # Cumulative time (in ticks) in various power states (Tick)
system.cpu0.power_state.pwrStateResidencyTicks::CLK_GATED  27432426686                       # Cumulative time (in ticks) in various power states (Tick)
system.cpu0.thread_0.numInsts                       0                       # Number of Instructions committed (Count)
system.cpu0.thread_0.numOps                         0                       # Number of Ops committed (Count)
system.cpu0.thread_0.numMemRefs                     0                       # Number of Memory References (Count)
system.cpu1.numCycles                       118999425                       # Number of cpu cycles simulated (Cycle)
system.cpu1.numWorkItemsStarted                     0                       # Number of work items this cpu started (Count)
system.cpu1.numWorkItemsCompleted                   0                       # Number of work items this cpu completed (Count)
system.cpu1.exec_context.thread_0.numInsts     36270941                       # Number of instructions committed (Count)
system.cpu1.exec_context.thread_0.numOps     62672508                       # Number of ops (including micro ops) committed (Count)
system.cpu1.exec_context.thread_0.numIntAluAccesses     58497858                       # Number of integer alu accesses (Count)
system.cpu1.exec_context.thread_0.numFpAluAccesses        17481                       # Number of float alu accesses (Count)
system.cpu1.exec_context.thread_0.numVecAluAccesses            0                       # Number of vector alu accesses (Count)
system.cpu1.exec_context.thread_0.numCallsReturns       366651                       # Number of times a function call or return occured (Count)
system.cpu1.exec_context.thread_0.numCondCtrlInsts      9301376                       # Number of instructions that are conditional controls (Count)
system.cpu1.exec_context.thread_0.numIntInsts     58497858                       # Number of integer instructions (Count)
system.cpu1.exec_context.thread_0.numFpInsts        17481                       # Number of float instructions (Count)
system.cpu1.exec_context.thread_0.numVecInsts            0                       # Number of vector instructions (Count)
system.cpu1.exec_context.thread_0.numIntRegReads     62323113                       # Number of times the integer registers were read (Count)
system.cpu1.exec_context.thread_0.numIntRegWrites     38311694                       # Number of times the integer registers were written (Count)
system.cpu1.exec_context.thread_0.numFpRegReads        11751                       # Number of times the floating registers were read (Count)
system.cpu1.exec_context.thread_0.numFpRegWrites         9510                       # Number of times the floating registers were written (Count)
system.cpu1.exec_context.thread_0.numVecRegReads            0                       # Number of times the vector registers were read (Count)
system.cpu1.exec_context.thread_0.numVecRegWrites            0                       # Number of times the vector registers were written (Count)
system.cpu1.exec_context.thread_0.numVecPredRegReads            0                       # Number of times the predicate registers were read (Count)
system.cpu1.exec_context.thread_0.numVecPredRegWrites            0                       # Number of times the predicate registers were written (Count)
system.cpu1.exec_context.thread_0.numCCRegReads     47839402                       # Number of times the CC registers were read (Count)
system.cpu1.exec_context.thread_0.numCCRegWrites     28325034                       # Number of times the CC registers were written (Count)
system.cpu1.exec_context.thread_0.numMiscRegReads     26777093                       # Number of times the Misc registers were read (Count)
system.cpu1.exec_context.thread_0.numMiscRegWrites        13295                       # Number of times the Misc registers were written (Count)
system.cpu1.exec_context.thread_0.numMemRefs      7242973                       # Number of memory refs (Count)
system.cpu1.exec_context.thread_0.numLoadInsts      6097592                       # Number of load instructions (Count)
system.cpu1.exec_context.thread_0.numStoreInsts      1145381                       # Number of store instructions (Count)
system.cpu1.exec_context.thread_0.numIdleCycles 10521531.184270                       # Number of idle cycles (Cycle)
system.cpu1.exec_context.thread_0.numBusyCycles 108477893.815730                       # Number of busy cycles (Cycle)
system.cpu1.exec_context.thread_0.notIdleFraction     0.911583                       # Percentage of non-idle cycles (Ratio)
system.cpu1.exec_context.thread_0.idleFraction     0.088417                       # Percentage of idle cycles (Ratio)
system.cpu1.exec_context.thread_0.numBranches      9846635                       # Number of branches fetched (Count)
system.cpu1.exec_context.thread_0.statExecutedInstType::No_OpClass        48616      0.08%      0.08% # Class of executed instruction. (Count)
system.cpu1.exec_context.thread_0.statExecutedInstType::IntAlu     55356098     88.30%     88.38% # Class of executed instruction. (Count)
system.cpu1.exec_context.thread_0.statExecutedInstType::IntMult        37800      0.06%     88.44% # Class of executed instruction. (Count)
system.cpu1.exec_context.thread_0.statExecutedInstType::IntDiv         1836      0.00%     88.44% # Class of executed instruction. (Count)
system.cpu1.exec_context.thread_0.statExecutedInstType::FloatAdd          104      0.00%     88.44% # Class of executed instruction. (Count)
system.cpu1.exec_context.thread_0.statExecutedInstType::FloatCmp            0      0.00%     88.44% # Class of executed instruction. (Count)
system.cpu1.exec_context.thread_0.statExecutedInstType::FloatCvt            0      0.00%     88.44% # Class of executed instruction. (Count)
system.cpu1.exec_context.thread_0.statExecutedInstType::FloatMult            0      0.00%     88.44% # Class of executed instruction. (Count)
system.cpu1.exec_context.thread_0.statExecutedInstType::FloatMultAcc            0      0.00%     88.44% # Class of executed instruction. (Count)
system.cpu1.exec_context.thread_0.statExecutedInstType::FloatDiv            0      0.00%     88.44% # Class of executed instruction. (Count)
system.cpu1.exec_context.thread_0.statExecutedInstType::FloatMisc            0      0.00%     88.44% # Class of executed instruction. (Count)
system.cpu1.exec_context.thread_0.statExecutedInstType::FloatSqrt            0      0.00%     88.44% # Class of executed instruction. (Count)
system.cpu1.exec_context.thread_0.statExecutedInstType::SimdAdd            0      0.00%     88.44% # Class of executed instruction. (Count)
system.cpu1.exec_context.thread_0.statExecutedInstType::SimdAddAcc            0      0.00%     88.44% # Class of executed instruction. (Count)
system.cpu1.exec_context.thread_0.statExecutedInstType::SimdAlu          202      0.00%     88.44% # Class of executed instruction. (Count)
system.cpu1.exec_context.thread_0.statExecutedInstType::SimdCmp            0      0.00%     88.44% # Class of executed instruction. (Count)
system.cpu1.exec_context.thread_0.statExecutedInstType::SimdCvt          408      0.00%     88.44% # Class of executed instruction. (Count)
system.cpu1.exec_context.thread_0.statExecutedInstType::SimdMisc         1115      0.00%     88.45% # Class of executed instruction. (Count)
system.cpu1.exec_context.thread_0.statExecutedInstType::SimdMult            0      0.00%     88.45% # Class of executed instruction. (Count)
system.cpu1.exec_context.thread_0.statExecutedInstType::SimdMultAcc            0      0.00%     88.45% # Class of executed instruction. (Count)
system.cpu1.exec_context.thread_0.statExecutedInstType::SimdShift            0      0.00%     88.45% # Class of executed instruction. (Count)
system.cpu1.exec_context.thread_0.statExecutedInstType::SimdShiftAcc            0      0.00%     88.45% # Class of executed instruction. (Count)
system.cpu1.exec_context.thread_0.statExecutedInstType::SimdDiv            0      0.00%     88.45% # Class of executed instruction. (Count)
system.cpu1.exec_context.thread_0.statExecutedInstType::SimdSqrt            0      0.00%     88.45% # Class of executed instruction. (Count)
system.cpu1.exec_context.thread_0.statExecutedInstType::SimdFloatAdd            4      0.00%     88.45% # Class of executed instruction. (Count)
system.cpu1.exec_context.thread_0.statExecutedInstType::SimdFloatAlu            0      0.00%     88.45% # Class of executed instruction. (Count)
system.cpu1.exec_context.thread_0.statExecutedInstType::SimdFloatCmp            0      0.00%     88.45% # Class of executed instruction. (Count)
system.cpu1.exec_context.thread_0.statExecutedInstType::SimdFloatCvt            5      0.00%     88.45% # Class of executed instruction. (Count)
system.cpu1.exec_context.thread_0.statExecutedInstType::SimdFloatDiv            2      0.00%     88.45% # Class of executed instruction. (Count)
system.cpu1.exec_context.thread_0.statExecutedInstType::SimdFloatMisc            0      0.00%     88.45% # Class of executed instruction. (Count)
system.cpu1.exec_context.thread_0.statExecutedInstType::SimdFloatMult            0      0.00%     88.45% # Class of executed instruction. (Count)
system.cpu1.exec_context.thread_0.statExecutedInstType::SimdFloatMultAcc            0      0.00%     88.45% # Class of executed instruction. (Count)
system.cpu1.exec_context.thread_0.statExecutedInstType::SimdFloatSqrt            0      0.00%     88.45% # Class of executed instruction. (Count)
system.cpu1.exec_context.thread_0.statExecutedInstType::SimdReduceAdd            0      0.00%     88.45% # Class of executed instruction. (Count)
system.cpu1.exec_context.thread_0.statExecutedInstType::SimdReduceAlu            0      0.00%     88.45% # Class of executed instruction. (Count)
system.cpu1.exec_context.thread_0.statExecutedInstType::SimdReduceCmp            0      0.00%     88.45% # Class of executed instruction. (Count)
system.cpu1.exec_context.thread_0.statExecutedInstType::SimdFloatReduceAdd            0      0.00%     88.45% # Class of executed instruction. (Count)
system.cpu1.exec_context.thread_0.statExecutedInstType::SimdFloatReduceCmp            0      0.00%     88.45% # Class of executed instruction. (Count)
system.cpu1.exec_context.thread_0.statExecutedInstType::SimdAes            0      0.00%     88.45% # Class of executed instruction. (Count)
system.cpu1.exec_context.thread_0.statExecutedInstType::SimdAesMix            0      0.00%     88.45% # Class of executed instruction. (Count)
system.cpu1.exec_context.thread_0.statExecutedInstType::SimdSha1Hash            0      0.00%     88.45% # Class of executed instruction. (Count)
system.cpu1.exec_context.thread_0.statExecutedInstType::SimdSha1Hash2            0      0.00%     88.45% # Class of executed instruction. (Count)
system.cpu1.exec_context.thread_0.statExecutedInstType::SimdSha256Hash            0      0.00%     88.45% # Class of executed instruction. (Count)
system.cpu1.exec_context.thread_0.statExecutedInstType::SimdSha256Hash2            0      0.00%     88.45% # Class of executed instruction. (Count)
system.cpu1.exec_context.thread_0.statExecutedInstType::SimdShaSigma2            0      0.00%     88.45% # Class of executed instruction. (Count)
system.cpu1.exec_context.thread_0.statExecutedInstType::SimdShaSigma3            0      0.00%     88.45% # Class of executed instruction. (Count)
system.cpu1.exec_context.thread_0.statExecutedInstType::SimdPredAlu            0      0.00%     88.45% # Class of executed instruction. (Count)
system.cpu1.exec_context.thread_0.statExecutedInstType::MemRead      6089778      9.71%     98.16% # Class of executed instruction. (Count)
system.cpu1.exec_context.thread_0.statExecutedInstType::MemWrite      1137819      1.82%     99.98% # Class of executed instruction. (Count)
system.cpu1.exec_context.thread_0.statExecutedInstType::FloatMemRead         7774      0.01%     99.99% # Class of executed instruction. (Count)
system.cpu1.exec_context.thread_0.statExecutedInstType::FloatMemWrite         7562      0.01%    100.00% # Class of executed instruction. (Count)
system.cpu1.exec_context.thread_0.statExecutedInstType::IprAccess            0      0.00%    100.00% # Class of executed instruction. (Count)
system.cpu1.exec_context.thread_0.statExecutedInstType::InstPrefetch            0      0.00%    100.00% # Class of executed instruction. (Count)
system.cpu1.exec_context.thread_0.statExecutedInstType::total     62689123                       # Class of executed instruction. (Count)
system.cpu1.interrupts.clk_domain.clock          5328                       # Clock period in ticks (Tick)
system.cpu1.mmu.dtb.rdAccesses                6101473                       # TLB accesses on read requests (Count)
system.cpu1.mmu.dtb.wrAccesses                1146174                       # TLB accesses on write requests (Count)
system.cpu1.mmu.dtb.rdMisses                      186                       # TLB misses on read requests (Count)
system.cpu1.mmu.dtb.wrMisses                       50                       # TLB misses on write requests (Count)
system.cpu1.mmu.dtb.walker.power_state.pwrStateResidencyTicks::UNDEFINED 5168626856010                       # Cumulative time (in ticks) in various power states (Tick)
system.cpu1.mmu.itb.rdAccesses                      0                       # TLB accesses on read requests (Count)
system.cpu1.mmu.itb.wrAccesses               42843190                       # TLB accesses on write requests (Count)
system.cpu1.mmu.itb.rdMisses                        0                       # TLB misses on read requests (Count)
system.cpu1.mmu.itb.wrMisses                      202                       # TLB misses on write requests (Count)
system.cpu1.mmu.itb.walker.power_state.pwrStateResidencyTicks::UNDEFINED 5168626856010                       # Cumulative time (in ticks) in various power states (Tick)
system.cpu1.power_state.numTransitions             40                       # Number of power state transitions (Count)
system.cpu1.power_state.ticksClkGated::samples           20                       # Distribution of time spent in the clock gated state (Tick)
system.cpu1.power_state.ticksClkGated::mean 175183402.950000                       # Distribution of time spent in the clock gated state (Tick)
system.cpu1.power_state.ticksClkGated::stdev 752737930.506071                       # Distribution of time spent in the clock gated state (Tick)
system.cpu1.power_state.ticksClkGated::1000-5e+10           20    100.00%    100.00% # Distribution of time spent in the clock gated state (Tick)
system.cpu1.power_state.ticksClkGated::min_value       573486                       # Distribution of time spent in the clock gated state (Tick)
system.cpu1.power_state.ticksClkGated::max_value   3373027929                       # Distribution of time spent in the clock gated state (Tick)
system.cpu1.power_state.ticksClkGated::total           20                       # Distribution of time spent in the clock gated state (Tick)
system.cpu1.power_state.pwrStateResidencyTicks::ON  36125320557                       # Cumulative time (in ticks) in various power states (Tick)
system.cpu1.power_state.pwrStateResidencyTicks::CLK_GATED   3503668059                       # Cumulative time (in ticks) in various power states (Tick)
system.cpu1.thread_0.numInsts                       0                       # Number of Instructions committed (Count)
system.cpu1.thread_0.numOps                         0                       # Number of Ops committed (Count)
system.cpu1.thread_0.numMemRefs                     0                       # Number of Memory References (Count)
system.cpu2.numCycles                       118999468                       # Number of cpu cycles simulated (Cycle)
system.cpu2.numWorkItemsStarted                     0                       # Number of work items this cpu started (Count)
system.cpu2.numWorkItemsCompleted                   0                       # Number of work items this cpu completed (Count)
system.cpu2.exec_context.thread_0.numInsts     31730238                       # Number of instructions committed (Count)
system.cpu2.exec_context.thread_0.numOps     54906019                       # Number of ops (including micro ops) committed (Count)
system.cpu2.exec_context.thread_0.numIntAluAccesses     51524694                       # Number of integer alu accesses (Count)
system.cpu2.exec_context.thread_0.numFpAluAccesses        16736                       # Number of float alu accesses (Count)
system.cpu2.exec_context.thread_0.numVecAluAccesses            0                       # Number of vector alu accesses (Count)
system.cpu2.exec_context.thread_0.numCallsReturns       424369                       # Number of times a function call or return occured (Count)
system.cpu2.exec_context.thread_0.numCondCtrlInsts      7869780                       # Number of instructions that are conditional controls (Count)
system.cpu2.exec_context.thread_0.numIntInsts     51524694                       # Number of integer instructions (Count)
system.cpu2.exec_context.thread_0.numFpInsts        16736                       # Number of float instructions (Count)
system.cpu2.exec_context.thread_0.numVecInsts            0                       # Number of vector instructions (Count)
system.cpu2.exec_context.thread_0.numIntRegReads     55804819                       # Number of times the integer registers were read (Count)
system.cpu2.exec_context.thread_0.numIntRegWrites     34000637                       # Number of times the integer registers were written (Count)
system.cpu2.exec_context.thread_0.numFpRegReads        11674                       # Number of times the floating registers were read (Count)
system.cpu2.exec_context.thread_0.numFpRegWrites         9212                       # Number of times the floating registers were written (Count)
system.cpu2.exec_context.thread_0.numVecRegReads            0                       # Number of times the vector registers were read (Count)
system.cpu2.exec_context.thread_0.numVecRegWrites            0                       # Number of times the vector registers were written (Count)
system.cpu2.exec_context.thread_0.numVecPredRegReads            0                       # Number of times the predicate registers were read (Count)
system.cpu2.exec_context.thread_0.numVecPredRegWrites            0                       # Number of times the predicate registers were written (Count)
system.cpu2.exec_context.thread_0.numCCRegReads     40854196                       # Number of times the CC registers were read (Count)
system.cpu2.exec_context.thread_0.numCCRegWrites     23955503                       # Number of times the CC registers were written (Count)
system.cpu2.exec_context.thread_0.numMiscRegReads     23675216                       # Number of times the Misc registers were read (Count)
system.cpu2.exec_context.thread_0.numMiscRegWrites        14755                       # Number of times the Misc registers were written (Count)
system.cpu2.exec_context.thread_0.numMemRefs      6856960                       # Number of memory refs (Count)
system.cpu2.exec_context.thread_0.numLoadInsts      5569435                       # Number of load instructions (Count)
system.cpu2.exec_context.thread_0.numStoreInsts      1287525                       # Number of store instructions (Count)
system.cpu2.exec_context.thread_0.numIdleCycles 21522089.920552                       # Number of idle cycles (Cycle)
system.cpu2.exec_context.thread_0.numBusyCycles 97477378.079448                       # Number of busy cycles (Cycle)
system.cpu2.exec_context.thread_0.notIdleFraction     0.819141                       # Percentage of non-idle cycles (Ratio)
system.cpu2.exec_context.thread_0.idleFraction     0.180859                       # Percentage of idle cycles (Ratio)
system.cpu2.exec_context.thread_0.numBranches      8502749                       # Number of branches fetched (Count)
system.cpu2.exec_context.thread_0.statExecutedInstType::No_OpClass        54311      0.10%      0.10% # Class of executed instruction. (Count)
system.cpu2.exec_context.thread_0.statExecutedInstType::IntAlu     47968048     87.33%     87.43% # Class of executed instruction. (Count)
system.cpu2.exec_context.thread_0.statExecutedInstType::IntMult        40792      0.07%     87.51% # Class of executed instruction. (Count)
system.cpu2.exec_context.thread_0.statExecutedInstType::IntDiv         2215      0.00%     87.51% # Class of executed instruction. (Count)
system.cpu2.exec_context.thread_0.statExecutedInstType::FloatAdd          113      0.00%     87.51% # Class of executed instruction. (Count)
system.cpu2.exec_context.thread_0.statExecutedInstType::FloatCmp            0      0.00%     87.51% # Class of executed instruction. (Count)
system.cpu2.exec_context.thread_0.statExecutedInstType::FloatCvt            0      0.00%     87.51% # Class of executed instruction. (Count)
system.cpu2.exec_context.thread_0.statExecutedInstType::FloatMult            0      0.00%     87.51% # Class of executed instruction. (Count)
system.cpu2.exec_context.thread_0.statExecutedInstType::FloatMultAcc            0      0.00%     87.51% # Class of executed instruction. (Count)
system.cpu2.exec_context.thread_0.statExecutedInstType::FloatDiv            0      0.00%     87.51% # Class of executed instruction. (Count)
system.cpu2.exec_context.thread_0.statExecutedInstType::FloatMisc            0      0.00%     87.51% # Class of executed instruction. (Count)
system.cpu2.exec_context.thread_0.statExecutedInstType::FloatSqrt            0      0.00%     87.51% # Class of executed instruction. (Count)
system.cpu2.exec_context.thread_0.statExecutedInstType::SimdAdd            0      0.00%     87.51% # Class of executed instruction. (Count)
system.cpu2.exec_context.thread_0.statExecutedInstType::SimdAddAcc            0      0.00%     87.51% # Class of executed instruction. (Count)
system.cpu2.exec_context.thread_0.statExecutedInstType::SimdAlu          222      0.00%     87.51% # Class of executed instruction. (Count)
system.cpu2.exec_context.thread_0.statExecutedInstType::SimdCmp            0      0.00%     87.51% # Class of executed instruction. (Count)
system.cpu2.exec_context.thread_0.statExecutedInstType::SimdCvt          448      0.00%     87.51% # Class of executed instruction. (Count)
system.cpu2.exec_context.thread_0.statExecutedInstType::SimdMisc         1225      0.00%     87.52% # Class of executed instruction. (Count)
system.cpu2.exec_context.thread_0.statExecutedInstType::SimdMult            0      0.00%     87.52% # Class of executed instruction. (Count)
system.cpu2.exec_context.thread_0.statExecutedInstType::SimdMultAcc            0      0.00%     87.52% # Class of executed instruction. (Count)
system.cpu2.exec_context.thread_0.statExecutedInstType::SimdShift            0      0.00%     87.52% # Class of executed instruction. (Count)
system.cpu2.exec_context.thread_0.statExecutedInstType::SimdShiftAcc            0      0.00%     87.52% # Class of executed instruction. (Count)
system.cpu2.exec_context.thread_0.statExecutedInstType::SimdDiv            0      0.00%     87.52% # Class of executed instruction. (Count)
system.cpu2.exec_context.thread_0.statExecutedInstType::SimdSqrt            0      0.00%     87.52% # Class of executed instruction. (Count)
system.cpu2.exec_context.thread_0.statExecutedInstType::SimdFloatAdd            4      0.00%     87.52% # Class of executed instruction. (Count)
system.cpu2.exec_context.thread_0.statExecutedInstType::SimdFloatAlu            0      0.00%     87.52% # Class of executed instruction. (Count)
system.cpu2.exec_context.thread_0.statExecutedInstType::SimdFloatCmp            0      0.00%     87.52% # Class of executed instruction. (Count)
system.cpu2.exec_context.thread_0.statExecutedInstType::SimdFloatCvt            5      0.00%     87.52% # Class of executed instruction. (Count)
system.cpu2.exec_context.thread_0.statExecutedInstType::SimdFloatDiv            2      0.00%     87.52% # Class of executed instruction. (Count)
system.cpu2.exec_context.thread_0.statExecutedInstType::SimdFloatMisc            0      0.00%     87.52% # Class of executed instruction. (Count)
system.cpu2.exec_context.thread_0.statExecutedInstType::SimdFloatMult            0      0.00%     87.52% # Class of executed instruction. (Count)
system.cpu2.exec_context.thread_0.statExecutedInstType::SimdFloatMultAcc            0      0.00%     87.52% # Class of executed instruction. (Count)
system.cpu2.exec_context.thread_0.statExecutedInstType::SimdFloatSqrt            0      0.00%     87.52% # Class of executed instruction. (Count)
system.cpu2.exec_context.thread_0.statExecutedInstType::SimdReduceAdd            0      0.00%     87.52% # Class of executed instruction. (Count)
system.cpu2.exec_context.thread_0.statExecutedInstType::SimdReduceAlu            0      0.00%     87.52% # Class of executed instruction. (Count)
system.cpu2.exec_context.thread_0.statExecutedInstType::SimdReduceCmp            0      0.00%     87.52% # Class of executed instruction. (Count)
system.cpu2.exec_context.thread_0.statExecutedInstType::SimdFloatReduceAdd            0      0.00%     87.52% # Class of executed instruction. (Count)
system.cpu2.exec_context.thread_0.statExecutedInstType::SimdFloatReduceCmp            0      0.00%     87.52% # Class of executed instruction. (Count)
system.cpu2.exec_context.thread_0.statExecutedInstType::SimdAes            0      0.00%     87.52% # Class of executed instruction. (Count)
system.cpu2.exec_context.thread_0.statExecutedInstType::SimdAesMix            0      0.00%     87.52% # Class of executed instruction. (Count)
system.cpu2.exec_context.thread_0.statExecutedInstType::SimdSha1Hash            0      0.00%     87.52% # Class of executed instruction. (Count)
system.cpu2.exec_context.thread_0.statExecutedInstType::SimdSha1Hash2            0      0.00%     87.52% # Class of executed instruction. (Count)
system.cpu2.exec_context.thread_0.statExecutedInstType::SimdSha256Hash            0      0.00%     87.52% # Class of executed instruction. (Count)
system.cpu2.exec_context.thread_0.statExecutedInstType::SimdSha256Hash2            0      0.00%     87.52% # Class of executed instruction. (Count)
system.cpu2.exec_context.thread_0.statExecutedInstType::SimdShaSigma2            0      0.00%     87.52% # Class of executed instruction. (Count)
system.cpu2.exec_context.thread_0.statExecutedInstType::SimdShaSigma3            0      0.00%     87.52% # Class of executed instruction. (Count)
system.cpu2.exec_context.thread_0.statExecutedInstType::SimdPredAlu            0      0.00%     87.52% # Class of executed instruction. (Count)
system.cpu2.exec_context.thread_0.statExecutedInstType::MemRead      5562076     10.13%     97.64% # Class of executed instruction. (Count)
system.cpu2.exec_context.thread_0.statExecutedInstType::MemWrite      1280450      2.33%     99.97% # Class of executed instruction. (Count)
system.cpu2.exec_context.thread_0.statExecutedInstType::FloatMemRead         7307      0.01%     99.99% # Class of executed instruction. (Count)
system.cpu2.exec_context.thread_0.statExecutedInstType::FloatMemWrite         7075      0.01%    100.00% # Class of executed instruction. (Count)
system.cpu2.exec_context.thread_0.statExecutedInstType::IprAccess            0      0.00%    100.00% # Class of executed instruction. (Count)
system.cpu2.exec_context.thread_0.statExecutedInstType::InstPrefetch            0      0.00%    100.00% # Class of executed instruction. (Count)
system.cpu2.exec_context.thread_0.statExecutedInstType::total     54924293                       # Class of executed instruction. (Count)
system.cpu2.interrupts.clk_domain.clock          5328                       # Clock period in ticks (Tick)
system.cpu2.mmu.dtb.rdAccesses                5571079                       # TLB accesses on read requests (Count)
system.cpu2.mmu.dtb.wrAccesses                1294751                       # TLB accesses on write requests (Count)
system.cpu2.mmu.dtb.rdMisses                      330                       # TLB misses on read requests (Count)
system.cpu2.mmu.dtb.wrMisses                      135                       # TLB misses on write requests (Count)
system.cpu2.mmu.dtb.walker.power_state.pwrStateResidencyTicks::UNDEFINED 5168626856010                       # Cumulative time (in ticks) in various power states (Tick)
system.cpu2.mmu.itb.rdAccesses                      0                       # TLB accesses on read requests (Count)
system.cpu2.mmu.itb.wrAccesses               37874079                       # TLB accesses on write requests (Count)
system.cpu2.mmu.itb.rdMisses                        0                       # TLB misses on read requests (Count)
system.cpu2.mmu.itb.wrMisses                      292                       # TLB misses on write requests (Count)
system.cpu2.mmu.itb.walker.power_state.pwrStateResidencyTicks::UNDEFINED 5168626856010                       # Cumulative time (in ticks) in various power states (Tick)
system.cpu2.power_state.numTransitions             52                       # Number of power state transitions (Count)
system.cpu2.power_state.ticksClkGated::samples           26                       # Distribution of time spent in the clock gated state (Tick)
system.cpu2.power_state.ticksClkGated::mean 275648062.307692                       # Distribution of time spent in the clock gated state (Tick)
system.cpu2.power_state.ticksClkGated::stdev 953105813.417189                       # Distribution of time spent in the clock gated state (Tick)
system.cpu2.power_state.ticksClkGated::1000-5e+10           26    100.00%    100.00% # Distribution of time spent in the clock gated state (Tick)
system.cpu2.power_state.ticksClkGated::min_value       162840                       # Distribution of time spent in the clock gated state (Tick)
system.cpu2.power_state.ticksClkGated::max_value   3647737611                       # Distribution of time spent in the clock gated state (Tick)
system.cpu2.power_state.ticksClkGated::total           26                       # Distribution of time spent in the clock gated state (Tick)
system.cpu2.power_state.pwrStateResidencyTicks::ON  32467757207                       # Cumulative time (in ticks) in various power states (Tick)
system.cpu2.power_state.pwrStateResidencyTicks::CLK_GATED   7166849620                       # Cumulative time (in ticks) in various power states (Tick)
system.cpu2.thread_0.numInsts                       0                       # Number of Instructions committed (Count)
system.cpu2.thread_0.numOps                         0                       # Number of Ops committed (Count)
system.cpu2.thread_0.numMemRefs                     0                       # Number of Memory References (Count)
system.cpu3.numCycles                       118999362                       # Number of cpu cycles simulated (Cycle)
system.cpu3.numWorkItemsStarted                     0                       # Number of work items this cpu started (Count)
system.cpu3.numWorkItemsCompleted                   0                       # Number of work items this cpu completed (Count)
system.cpu3.exec_context.thread_0.numInsts     39718158                       # Number of instructions committed (Count)
system.cpu3.exec_context.thread_0.numOps     68649589                       # Number of ops (including micro ops) committed (Count)
system.cpu3.exec_context.thread_0.numIntAluAccesses     64050645                       # Number of integer alu accesses (Count)
system.cpu3.exec_context.thread_0.numFpAluAccesses        10178                       # Number of float alu accesses (Count)
system.cpu3.exec_context.thread_0.numVecAluAccesses            0                       # Number of vector alu accesses (Count)
system.cpu3.exec_context.thread_0.numCallsReturns       394151                       # Number of times a function call or return occured (Count)
system.cpu3.exec_context.thread_0.numCondCtrlInsts     10187096                       # Number of instructions that are conditional controls (Count)
system.cpu3.exec_context.thread_0.numIntInsts     64050645                       # Number of integer instructions (Count)
system.cpu3.exec_context.thread_0.numFpInsts        10178                       # Number of float instructions (Count)
system.cpu3.exec_context.thread_0.numVecInsts            0                       # Number of vector instructions (Count)
system.cpu3.exec_context.thread_0.numIntRegReads     68225412                       # Number of times the integer registers were read (Count)
system.cpu3.exec_context.thread_0.numIntRegWrites     41932791                       # Number of times the integer registers were written (Count)
system.cpu3.exec_context.thread_0.numFpRegReads         8926                       # Number of times the floating registers were read (Count)
system.cpu3.exec_context.thread_0.numFpRegWrites         6068                       # Number of times the floating registers were written (Count)
system.cpu3.exec_context.thread_0.numVecRegReads            0                       # Number of times the vector registers were read (Count)
system.cpu3.exec_context.thread_0.numVecRegWrites            0                       # Number of times the vector registers were written (Count)
system.cpu3.exec_context.thread_0.numVecPredRegReads            0                       # Number of times the predicate registers were read (Count)
system.cpu3.exec_context.thread_0.numVecPredRegWrites            0                       # Number of times the predicate registers were written (Count)
system.cpu3.exec_context.thread_0.numCCRegReads     52369143                       # Number of times the CC registers were read (Count)
system.cpu3.exec_context.thread_0.numCCRegWrites     31130117                       # Number of times the CC registers were written (Count)
system.cpu3.exec_context.thread_0.numMiscRegReads     29297272                       # Number of times the Misc registers were read (Count)
system.cpu3.exec_context.thread_0.numMiscRegWrites        15606                       # Number of times the Misc registers were written (Count)
system.cpu3.exec_context.thread_0.numMemRefs      7922441                       # Number of memory refs (Count)
system.cpu3.exec_context.thread_0.numLoadInsts      6654251                       # Number of load instructions (Count)
system.cpu3.exec_context.thread_0.numStoreInsts      1268190                       # Number of store instructions (Count)
system.cpu3.exec_context.thread_0.numIdleCycles 128171.007929                       # Number of idle cycles (Cycle)
system.cpu3.exec_context.thread_0.numBusyCycles 118871190.992071                       # Number of busy cycles (Cycle)
system.cpu3.exec_context.thread_0.notIdleFraction     0.998923                       # Percentage of non-idle cycles (Ratio)
system.cpu3.exec_context.thread_0.idleFraction     0.001077                       # Percentage of idle cycles (Ratio)
system.cpu3.exec_context.thread_0.numBranches     10772664                       # Number of branches fetched (Count)
system.cpu3.exec_context.thread_0.statExecutedInstType::No_OpClass        53373      0.08%      0.08% # Class of executed instruction. (Count)
system.cpu3.exec_context.thread_0.statExecutedInstType::IntAlu     60645874     88.32%     88.40% # Class of executed instruction. (Count)
system.cpu3.exec_context.thread_0.statExecutedInstType::IntMult        41217      0.06%     88.46% # Class of executed instruction. (Count)
system.cpu3.exec_context.thread_0.statExecutedInstType::IntDiv         2234      0.00%     88.46% # Class of executed instruction. (Count)
system.cpu3.exec_context.thread_0.statExecutedInstType::FloatAdd          131      0.00%     88.46% # Class of executed instruction. (Count)
system.cpu3.exec_context.thread_0.statExecutedInstType::FloatCmp            0      0.00%     88.46% # Class of executed instruction. (Count)
system.cpu3.exec_context.thread_0.statExecutedInstType::FloatCvt            0      0.00%     88.46% # Class of executed instruction. (Count)
system.cpu3.exec_context.thread_0.statExecutedInstType::FloatMult            0      0.00%     88.46% # Class of executed instruction. (Count)
system.cpu3.exec_context.thread_0.statExecutedInstType::FloatMultAcc            0      0.00%     88.46% # Class of executed instruction. (Count)
system.cpu3.exec_context.thread_0.statExecutedInstType::FloatDiv            0      0.00%     88.46% # Class of executed instruction. (Count)
system.cpu3.exec_context.thread_0.statExecutedInstType::FloatMisc            0      0.00%     88.46% # Class of executed instruction. (Count)
system.cpu3.exec_context.thread_0.statExecutedInstType::FloatSqrt            0      0.00%     88.46% # Class of executed instruction. (Count)
system.cpu3.exec_context.thread_0.statExecutedInstType::SimdAdd            0      0.00%     88.46% # Class of executed instruction. (Count)
system.cpu3.exec_context.thread_0.statExecutedInstType::SimdAddAcc            0      0.00%     88.46% # Class of executed instruction. (Count)
system.cpu3.exec_context.thread_0.statExecutedInstType::SimdAlu          258      0.00%     88.46% # Class of executed instruction. (Count)
system.cpu3.exec_context.thread_0.statExecutedInstType::SimdCmp            0      0.00%     88.46% # Class of executed instruction. (Count)
system.cpu3.exec_context.thread_0.statExecutedInstType::SimdCvt          520      0.00%     88.46% # Class of executed instruction. (Count)
system.cpu3.exec_context.thread_0.statExecutedInstType::SimdMisc         1423      0.00%     88.46% # Class of executed instruction. (Count)
system.cpu3.exec_context.thread_0.statExecutedInstType::SimdMult            0      0.00%     88.46% # Class of executed instruction. (Count)
system.cpu3.exec_context.thread_0.statExecutedInstType::SimdMultAcc            0      0.00%     88.46% # Class of executed instruction. (Count)
system.cpu3.exec_context.thread_0.statExecutedInstType::SimdShift            0      0.00%     88.46% # Class of executed instruction. (Count)
system.cpu3.exec_context.thread_0.statExecutedInstType::SimdShiftAcc            0      0.00%     88.46% # Class of executed instruction. (Count)
system.cpu3.exec_context.thread_0.statExecutedInstType::SimdDiv            0      0.00%     88.46% # Class of executed instruction. (Count)
system.cpu3.exec_context.thread_0.statExecutedInstType::SimdSqrt            0      0.00%     88.46% # Class of executed instruction. (Count)
system.cpu3.exec_context.thread_0.statExecutedInstType::SimdFloatAdd            4      0.00%     88.46% # Class of executed instruction. (Count)
system.cpu3.exec_context.thread_0.statExecutedInstType::SimdFloatAlu            0      0.00%     88.46% # Class of executed instruction. (Count)
system.cpu3.exec_context.thread_0.statExecutedInstType::SimdFloatCmp            0      0.00%     88.46% # Class of executed instruction. (Count)
system.cpu3.exec_context.thread_0.statExecutedInstType::SimdFloatCvt            5      0.00%     88.46% # Class of executed instruction. (Count)
system.cpu3.exec_context.thread_0.statExecutedInstType::SimdFloatDiv            2      0.00%     88.46% # Class of executed instruction. (Count)
system.cpu3.exec_context.thread_0.statExecutedInstType::SimdFloatMisc            0      0.00%     88.46% # Class of executed instruction. (Count)
system.cpu3.exec_context.thread_0.statExecutedInstType::SimdFloatMult            0      0.00%     88.46% # Class of executed instruction. (Count)
system.cpu3.exec_context.thread_0.statExecutedInstType::SimdFloatMultAcc            0      0.00%     88.46% # Class of executed instruction. (Count)
system.cpu3.exec_context.thread_0.statExecutedInstType::SimdFloatSqrt            0      0.00%     88.46% # Class of executed instruction. (Count)
system.cpu3.exec_context.thread_0.statExecutedInstType::SimdReduceAdd            0      0.00%     88.46% # Class of executed instruction. (Count)
system.cpu3.exec_context.thread_0.statExecutedInstType::SimdReduceAlu            0      0.00%     88.46% # Class of executed instruction. (Count)
system.cpu3.exec_context.thread_0.statExecutedInstType::SimdReduceCmp            0      0.00%     88.46% # Class of executed instruction. (Count)
system.cpu3.exec_context.thread_0.statExecutedInstType::SimdFloatReduceAdd            0      0.00%     88.46% # Class of executed instruction. (Count)
system.cpu3.exec_context.thread_0.statExecutedInstType::SimdFloatReduceCmp            0      0.00%     88.46% # Class of executed instruction. (Count)
system.cpu3.exec_context.thread_0.statExecutedInstType::SimdAes            0      0.00%     88.46% # Class of executed instruction. (Count)
system.cpu3.exec_context.thread_0.statExecutedInstType::SimdAesMix            0      0.00%     88.46% # Class of executed instruction. (Count)
system.cpu3.exec_context.thread_0.statExecutedInstType::SimdSha1Hash            0      0.00%     88.46% # Class of executed instruction. (Count)
system.cpu3.exec_context.thread_0.statExecutedInstType::SimdSha1Hash2            0      0.00%     88.46% # Class of executed instruction. (Count)
system.cpu3.exec_context.thread_0.statExecutedInstType::SimdSha256Hash            0      0.00%     88.46% # Class of executed instruction. (Count)
system.cpu3.exec_context.thread_0.statExecutedInstType::SimdSha256Hash2            0      0.00%     88.46% # Class of executed instruction. (Count)
system.cpu3.exec_context.thread_0.statExecutedInstType::SimdShaSigma2            0      0.00%     88.46% # Class of executed instruction. (Count)
system.cpu3.exec_context.thread_0.statExecutedInstType::SimdShaSigma3            0      0.00%     88.46% # Class of executed instruction. (Count)
system.cpu3.exec_context.thread_0.statExecutedInstType::SimdPredAlu            0      0.00%     88.46% # Class of executed instruction. (Count)
system.cpu3.exec_context.thread_0.statExecutedInstType::MemRead      6650380      9.68%     98.15% # Class of executed instruction. (Count)
system.cpu3.exec_context.thread_0.statExecutedInstType::MemWrite      1264601      1.84%     99.99% # Class of executed instruction. (Count)
system.cpu3.exec_context.thread_0.statExecutedInstType::FloatMemRead         3857      0.01%     99.99% # Class of executed instruction. (Count)
system.cpu3.exec_context.thread_0.statExecutedInstType::FloatMemWrite         3589      0.01%    100.00% # Class of executed instruction. (Count)
system.cpu3.exec_context.thread_0.statExecutedInstType::IprAccess            0      0.00%    100.00% # Class of executed instruction. (Count)
system.cpu3.exec_context.thread_0.statExecutedInstType::InstPrefetch            0      0.00%    100.00% # Class of executed instruction. (Count)
system.cpu3.exec_context.thread_0.statExecutedInstType::total     68667468                       # Class of executed instruction. (Count)
system.cpu3.interrupts.clk_domain.clock          5328                       # Clock period in ticks (Tick)
system.cpu3.mmu.dtb.rdAccesses                6655348                       # TLB accesses on read requests (Count)
system.cpu3.mmu.dtb.wrAccesses                1275125                       # TLB accesses on write requests (Count)
system.cpu3.mmu.dtb.rdMisses                      241                       # TLB misses on read requests (Count)
system.cpu3.mmu.dtb.wrMisses                      113                       # TLB misses on write requests (Count)
system.cpu3.mmu.dtb.walker.power_state.pwrStateResidencyTicks::UNDEFINED 5168626856010                       # Cumulative time (in ticks) in various power states (Tick)
system.cpu3.mmu.itb.rdAccesses                      0                       # TLB accesses on read requests (Count)
system.cpu3.mmu.itb.wrAccesses               46841030                       # TLB accesses on write requests (Count)
system.cpu3.mmu.itb.rdMisses                        0                       # TLB misses on read requests (Count)
system.cpu3.mmu.itb.wrMisses                      267                       # TLB misses on write requests (Count)
system.cpu3.mmu.itb.walker.power_state.pwrStateResidencyTicks::UNDEFINED 5168626856010                       # Cumulative time (in ticks) in various power states (Tick)
system.cpu3.power_state.numTransitions             14                       # Number of power state transitions (Count)
system.cpu3.power_state.ticksClkGated::samples            7                       # Distribution of time spent in the clock gated state (Tick)
system.cpu3.power_state.ticksClkGated::mean      6097278                       # Distribution of time spent in the clock gated state (Tick)
system.cpu3.power_state.ticksClkGated::stdev 8379669.419598                       # Distribution of time spent in the clock gated state (Tick)
system.cpu3.power_state.ticksClkGated::1000-5e+10            7    100.00%    100.00% # Distribution of time spent in the clock gated state (Tick)
system.cpu3.power_state.ticksClkGated::min_value      1377288                       # Distribution of time spent in the clock gated state (Tick)
system.cpu3.power_state.ticksClkGated::max_value     24258051                       # Distribution of time spent in the clock gated state (Tick)
system.cpu3.power_state.ticksClkGated::total            7                       # Distribution of time spent in the clock gated state (Tick)
system.cpu3.power_state.pwrStateResidencyTicks::ON 152080841256                       # Cumulative time (in ticks) in various power states (Tick)
system.cpu3.power_state.pwrStateResidencyTicks::CLK_GATED     42680946                       # Cumulative time (in ticks) in various power states (Tick)
system.cpu3.thread_0.numInsts                       0                       # Number of Instructions committed (Count)
system.cpu3.thread_0.numOps                         0                       # Number of Ops committed (Count)
system.cpu3.thread_0.numMemRefs                     0                       # Number of Memory References (Count)
system.cpu_clk_domain.clock                       333                       # Clock period in ticks (Tick)
system.cpu_voltage_domain.voltage                   1                       # Voltage in Volts (Volt)
system.iobus.transDist::ReadReq                   471                       # Transaction distribution (Count)
system.iobus.transDist::ReadResp                  471                       # Transaction distribution (Count)
system.iobus.transDist::WriteReq                  640                       # Transaction distribution (Count)
system.iobus.transDist::WriteResp                 640                       # Transaction distribution (Count)
system.iobus.pktCount_system.pc.south_bridge.io_apic.int_request::system.ruby.l1_cntrl0.sequencer.pio-response-port           36                       # Packet count per connected requestor and responder (Count)
system.iobus.pktCount_system.pc.south_bridge.io_apic.int_request::system.ruby.l1_cntrl1.sequencer.pio-response-port           36                       # Packet count per connected requestor and responder (Count)
system.iobus.pktCount_system.pc.south_bridge.io_apic.int_request::system.ruby.l1_cntrl2.sequencer.pio-response-port           38                       # Packet count per connected requestor and responder (Count)
system.iobus.pktCount_system.pc.south_bridge.io_apic.int_request::system.ruby.l1_cntrl3.sequencer.pio-response-port           38                       # Packet count per connected requestor and responder (Count)
system.iobus.pktCount_system.pc.south_bridge.io_apic.int_request::total          148                       # Packet count per connected requestor and responder (Count)
system.iobus.pktCount_system.ruby.l1_cntrl0.sequencer.mem-request-port::system.pc.south_bridge.io_apic.pio          118                       # Packet count per connected requestor and responder (Count)
system.iobus.pktCount_system.ruby.l1_cntrl0.sequencer.mem-request-port::system.pc.com_1.pio          140                       # Packet count per connected requestor and responder (Count)
system.iobus.pktCount_system.ruby.l1_cntrl0.sequencer.mem-request-port::system.ruby.l1_cntrl0.sequencer.pio-response-port          106                       # Packet count per connected requestor and responder (Count)
system.iobus.pktCount_system.ruby.l1_cntrl0.sequencer.mem-request-port::system.ruby.l1_cntrl1.sequencer.pio-response-port           12                       # Packet count per connected requestor and responder (Count)
system.iobus.pktCount_system.ruby.l1_cntrl0.sequencer.mem-request-port::system.ruby.l1_cntrl2.sequencer.pio-response-port           12                       # Packet count per connected requestor and responder (Count)
system.iobus.pktCount_system.ruby.l1_cntrl0.sequencer.mem-request-port::system.ruby.l1_cntrl3.sequencer.pio-response-port           12                       # Packet count per connected requestor and responder (Count)
system.iobus.pktCount_system.ruby.l1_cntrl0.sequencer.mem-request-port::total          400                       # Packet count per connected requestor and responder (Count)
system.iobus.pktCount_system.ruby.l1_cntrl1.sequencer.mem-request-port::system.pc.south_bridge.ide.pio           80                       # Packet count per connected requestor and responder (Count)
system.iobus.pktCount_system.ruby.l1_cntrl1.sequencer.mem-request-port::system.pc.south_bridge.io_apic.pio          120                       # Packet count per connected requestor and responder (Count)
system.iobus.pktCount_system.ruby.l1_cntrl1.sequencer.mem-request-port::system.pc.com_1.pio          286                       # Packet count per connected requestor and responder (Count)
system.iobus.pktCount_system.ruby.l1_cntrl1.sequencer.mem-request-port::system.ruby.l1_cntrl1.sequencer.pio-response-port          136                       # Packet count per connected requestor and responder (Count)
system.iobus.pktCount_system.ruby.l1_cntrl1.sequencer.mem-request-port::system.ruby.l1_cntrl2.sequencer.pio-response-port           12                       # Packet count per connected requestor and responder (Count)
system.iobus.pktCount_system.ruby.l1_cntrl1.sequencer.mem-request-port::system.ruby.l1_cntrl3.sequencer.pio-response-port           12                       # Packet count per connected requestor and responder (Count)
system.iobus.pktCount_system.ruby.l1_cntrl1.sequencer.mem-request-port::total          646                       # Packet count per connected requestor and responder (Count)
system.iobus.pktCount_system.ruby.l1_cntrl2.sequencer.mem-request-port::system.pc.south_bridge.ide.pio           12                       # Packet count per connected requestor and responder (Count)
system.iobus.pktCount_system.ruby.l1_cntrl2.sequencer.mem-request-port::system.pc.south_bridge.io_apic.pio          130                       # Packet count per connected requestor and responder (Count)
system.iobus.pktCount_system.ruby.l1_cntrl2.sequencer.mem-request-port::system.pc.com_1.pio          160                       # Packet count per connected requestor and responder (Count)
system.iobus.pktCount_system.ruby.l1_cntrl2.sequencer.mem-request-port::system.ruby.l1_cntrl0.sequencer.pio-response-port           12                       # Packet count per connected requestor and responder (Count)
system.iobus.pktCount_system.ruby.l1_cntrl2.sequencer.mem-request-port::system.ruby.l1_cntrl1.sequencer.pio-response-port           14                       # Packet count per connected requestor and responder (Count)
system.iobus.pktCount_system.ruby.l1_cntrl2.sequencer.mem-request-port::system.ruby.l1_cntrl2.sequencer.pio-response-port          138                       # Packet count per connected requestor and responder (Count)
system.iobus.pktCount_system.ruby.l1_cntrl2.sequencer.mem-request-port::system.ruby.l1_cntrl3.sequencer.pio-response-port           14                       # Packet count per connected requestor and responder (Count)
system.iobus.pktCount_system.ruby.l1_cntrl2.sequencer.mem-request-port::total          480                       # Packet count per connected requestor and responder (Count)
system.iobus.pktCount_system.ruby.l1_cntrl3.sequencer.mem-request-port::system.pc.south_bridge.ide.pio           46                       # Packet count per connected requestor and responder (Count)
system.iobus.pktCount_system.ruby.l1_cntrl3.sequencer.mem-request-port::system.pc.south_bridge.io_apic.pio          104                       # Packet count per connected requestor and responder (Count)
system.iobus.pktCount_system.ruby.l1_cntrl3.sequencer.mem-request-port::system.pc.com_1.pio          224                       # Packet count per connected requestor and responder (Count)
system.iobus.pktCount_system.ruby.l1_cntrl3.sequencer.mem-request-port::system.ruby.l1_cntrl1.sequencer.pio-response-port           16                       # Packet count per connected requestor and responder (Count)
system.iobus.pktCount_system.ruby.l1_cntrl3.sequencer.mem-request-port::system.ruby.l1_cntrl2.sequencer.pio-response-port           14                       # Packet count per connected requestor and responder (Count)
system.iobus.pktCount_system.ruby.l1_cntrl3.sequencer.mem-request-port::system.ruby.l1_cntrl3.sequencer.pio-response-port          144                       # Packet count per connected requestor and responder (Count)
system.iobus.pktCount_system.ruby.l1_cntrl3.sequencer.mem-request-port::total          548                       # Packet count per connected requestor and responder (Count)
system.iobus.pktCount::total                     2222                       # Packet count per connected requestor and responder (Count)
system.iobus.pktSize_system.pc.south_bridge.io_apic.int_request::system.ruby.l1_cntrl0.sequencer.pio-response-port           72                       # Cumulative packet size per connected requestor and responder (Byte)
system.iobus.pktSize_system.pc.south_bridge.io_apic.int_request::system.ruby.l1_cntrl1.sequencer.pio-response-port           72                       # Cumulative packet size per connected requestor and responder (Byte)
system.iobus.pktSize_system.pc.south_bridge.io_apic.int_request::system.ruby.l1_cntrl2.sequencer.pio-response-port           76                       # Cumulative packet size per connected requestor and responder (Byte)
system.iobus.pktSize_system.pc.south_bridge.io_apic.int_request::system.ruby.l1_cntrl3.sequencer.pio-response-port           76                       # Cumulative packet size per connected requestor and responder (Byte)
system.iobus.pktSize_system.pc.south_bridge.io_apic.int_request::total          296                       # Cumulative packet size per connected requestor and responder (Byte)
system.iobus.pktSize_system.ruby.l1_cntrl0.sequencer.mem-request-port::system.pc.south_bridge.io_apic.pio          236                       # Cumulative packet size per connected requestor and responder (Byte)
system.iobus.pktSize_system.ruby.l1_cntrl0.sequencer.mem-request-port::system.pc.com_1.pio           70                       # Cumulative packet size per connected requestor and responder (Byte)
system.iobus.pktSize_system.ruby.l1_cntrl0.sequencer.mem-request-port::system.ruby.l1_cntrl0.sequencer.pio-response-port          212                       # Cumulative packet size per connected requestor and responder (Byte)
system.iobus.pktSize_system.ruby.l1_cntrl0.sequencer.mem-request-port::system.ruby.l1_cntrl1.sequencer.pio-response-port           24                       # Cumulative packet size per connected requestor and responder (Byte)
system.iobus.pktSize_system.ruby.l1_cntrl0.sequencer.mem-request-port::system.ruby.l1_cntrl2.sequencer.pio-response-port           24                       # Cumulative packet size per connected requestor and responder (Byte)
system.iobus.pktSize_system.ruby.l1_cntrl0.sequencer.mem-request-port::system.ruby.l1_cntrl3.sequencer.pio-response-port           24                       # Cumulative packet size per connected requestor and responder (Byte)
system.iobus.pktSize_system.ruby.l1_cntrl0.sequencer.mem-request-port::total          590                       # Cumulative packet size per connected requestor and responder (Byte)
system.iobus.pktSize_system.ruby.l1_cntrl1.sequencer.mem-request-port::system.pc.south_bridge.ide.pio           46                       # Cumulative packet size per connected requestor and responder (Byte)
system.iobus.pktSize_system.ruby.l1_cntrl1.sequencer.mem-request-port::system.pc.south_bridge.io_apic.pio          240                       # Cumulative packet size per connected requestor and responder (Byte)
system.iobus.pktSize_system.ruby.l1_cntrl1.sequencer.mem-request-port::system.pc.com_1.pio          143                       # Cumulative packet size per connected requestor and responder (Byte)
system.iobus.pktSize_system.ruby.l1_cntrl1.sequencer.mem-request-port::system.ruby.l1_cntrl1.sequencer.pio-response-port          272                       # Cumulative packet size per connected requestor and responder (Byte)
system.iobus.pktSize_system.ruby.l1_cntrl1.sequencer.mem-request-port::system.ruby.l1_cntrl2.sequencer.pio-response-port           24                       # Cumulative packet size per connected requestor and responder (Byte)
system.iobus.pktSize_system.ruby.l1_cntrl1.sequencer.mem-request-port::system.ruby.l1_cntrl3.sequencer.pio-response-port           24                       # Cumulative packet size per connected requestor and responder (Byte)
system.iobus.pktSize_system.ruby.l1_cntrl1.sequencer.mem-request-port::total          749                       # Cumulative packet size per connected requestor and responder (Byte)
system.iobus.pktSize_system.ruby.l1_cntrl2.sequencer.mem-request-port::system.pc.south_bridge.ide.pio            6                       # Cumulative packet size per connected requestor and responder (Byte)
system.iobus.pktSize_system.ruby.l1_cntrl2.sequencer.mem-request-port::system.pc.south_bridge.io_apic.pio          260                       # Cumulative packet size per connected requestor and responder (Byte)
system.iobus.pktSize_system.ruby.l1_cntrl2.sequencer.mem-request-port::system.pc.com_1.pio           80                       # Cumulative packet size per connected requestor and responder (Byte)
system.iobus.pktSize_system.ruby.l1_cntrl2.sequencer.mem-request-port::system.ruby.l1_cntrl0.sequencer.pio-response-port           24                       # Cumulative packet size per connected requestor and responder (Byte)
system.iobus.pktSize_system.ruby.l1_cntrl2.sequencer.mem-request-port::system.ruby.l1_cntrl1.sequencer.pio-response-port           28                       # Cumulative packet size per connected requestor and responder (Byte)
system.iobus.pktSize_system.ruby.l1_cntrl2.sequencer.mem-request-port::system.ruby.l1_cntrl2.sequencer.pio-response-port          276                       # Cumulative packet size per connected requestor and responder (Byte)
system.iobus.pktSize_system.ruby.l1_cntrl2.sequencer.mem-request-port::system.ruby.l1_cntrl3.sequencer.pio-response-port           28                       # Cumulative packet size per connected requestor and responder (Byte)
system.iobus.pktSize_system.ruby.l1_cntrl2.sequencer.mem-request-port::total          702                       # Cumulative packet size per connected requestor and responder (Byte)
system.iobus.pktSize_system.ruby.l1_cntrl3.sequencer.mem-request-port::system.pc.south_bridge.ide.pio           26                       # Cumulative packet size per connected requestor and responder (Byte)
system.iobus.pktSize_system.ruby.l1_cntrl3.sequencer.mem-request-port::system.pc.south_bridge.io_apic.pio          208                       # Cumulative packet size per connected requestor and responder (Byte)
system.iobus.pktSize_system.ruby.l1_cntrl3.sequencer.mem-request-port::system.pc.com_1.pio          112                       # Cumulative packet size per connected requestor and responder (Byte)
system.iobus.pktSize_system.ruby.l1_cntrl3.sequencer.mem-request-port::system.ruby.l1_cntrl1.sequencer.pio-response-port           32                       # Cumulative packet size per connected requestor and responder (Byte)
system.iobus.pktSize_system.ruby.l1_cntrl3.sequencer.mem-request-port::system.ruby.l1_cntrl2.sequencer.pio-response-port           28                       # Cumulative packet size per connected requestor and responder (Byte)
system.iobus.pktSize_system.ruby.l1_cntrl3.sequencer.mem-request-port::system.ruby.l1_cntrl3.sequencer.pio-response-port          288                       # Cumulative packet size per connected requestor and responder (Byte)
system.iobus.pktSize_system.ruby.l1_cntrl3.sequencer.mem-request-port::total          694                       # Cumulative packet size per connected requestor and responder (Byte)
system.iobus.pktSize::total                      3031                       # Cumulative packet size per connected requestor and responder (Byte)
system.iobus.power_state.pwrStateResidencyTicks::UNDEFINED 5168626856010                       # Cumulative time (in ticks) in various power states (Tick)
system.iobus.reqLayer15.occupancy              188275                       # Layer occupancy (ticks) (Tick)
system.iobus.reqLayer15.utilization               0.0                       # Layer utilization (Ratio)
system.iobus.reqLayer16.occupancy              262540                       # Layer occupancy (ticks) (Tick)
system.iobus.reqLayer16.utilization               0.0                       # Layer utilization (Ratio)
system.iobus.reqLayer17.occupancy              264499                       # Layer occupancy (ticks) (Tick)
system.iobus.reqLayer17.utilization               0.0                       # Layer utilization (Ratio)
system.iobus.reqLayer18.occupancy              272389                       # Layer occupancy (ticks) (Tick)
system.iobus.reqLayer18.utilization               0.0                       # Layer utilization (Ratio)
system.iobus.reqLayer2.occupancy               141203                       # Layer occupancy (ticks) (Tick)
system.iobus.reqLayer2.utilization                0.0                       # Layer utilization (Ratio)
system.iobus.reqLayer8.occupancy               462997                       # Layer occupancy (ticks) (Tick)
system.iobus.reqLayer8.utilization                0.0                       # Layer utilization (Ratio)
system.iobus.reqLayer9.occupancy               687026                       # Layer occupancy (ticks) (Tick)
system.iobus.reqLayer9.utilization                0.0                       # Layer utilization (Ratio)
system.iobus.respLayer0.occupancy              107341                       # Layer occupancy (ticks) (Tick)
system.iobus.respLayer0.utilization               0.0                       # Layer utilization (Ratio)
system.iobus.respLayer3.occupancy              312724                       # Layer occupancy (ticks) (Tick)
system.iobus.respLayer3.utilization               0.0                       # Layer utilization (Ratio)
system.iobus.respLayer5.occupancy              511533                       # Layer occupancy (ticks) (Tick)
system.iobus.respLayer5.utilization               0.0                       # Layer utilization (Ratio)
system.iobus.respLayer7.occupancy              375669                       # Layer occupancy (ticks) (Tick)
[...]
system.ruby.network.data_traffic_distribution.n3.n7            0                       (Unspecified)
system.ruby.network.data_traffic_distribution.n3.n8            0                       (Unspecified)
system.ruby.network.data_traffic_distribution.n3.n9            0                       (Unspecified)
system.ruby.network.data_traffic_distribution.n4.n0            0                       (Unspecified)
system.ruby.network.data_traffic_distribution.n4.n1            0                       (Unspecified)
system.ruby.network.data_traffic_distribution.n4.n10            0                       (Unspecified)
system.ruby.network.data_traffic_distribution.n4.n11            0                       (Unspecified)
system.ruby.network.data_traffic_distribution.n4.n12            0                       (Unspecified)
system.ruby.network.data_traffic_distribution.n4.n13            0                       (Unspecified)
system.ruby.network.data_traffic_distribution.n4.n14            0                       (Unspecified)
system.ruby.network.data_traffic_distribution.n4.n15            0                       (Unspecified)
system.ruby.network.data_traffic_distribution.n4.n2            0                       (Unspecified)
system.ruby.network.data_traffic_distribution.n4.n3            0                       (Unspecified)
system.ruby.network.data_traffic_distribution.n4.n4            0                       (Unspecified)
system.ruby.network.data_traffic_distribution.n4.n5            0                       (Unspecified)
system.ruby.network.data_traffic_distribution.n4.n6            0                       (Unspecified)
system.ruby.network.data_traffic_distribution.n4.n7            0                       (Unspecified)
system.ruby.network.data_traffic_distribution.n4.n8            0                       (Unspecified)
system.ruby.network.data_traffic_distribution.n4.n9            0                       (Unspecified)
system.ruby.network.data_traffic_distribution.n5.n0            0                       (Unspecified)
system.ruby.network.data_traffic_distribution.n5.n1            0                       (Unspecified)
system.ruby.network.data_traffic_distribution.n5.n10            0                       (Unspecified)
system.ruby.network.data_traffic_distribution.n5.n11            0                       (Unspecified)
system.ruby.network.data_traffic_distribution.n5.n12            0                       (Unspecified)
system.ruby.network.data_traffic_distribution.n5.n13            0                       (Unspecified)
system.ruby.network.data_traffic_distribution.n5.n14            0                       (Unspecified)
system.ruby.network.data_traffic_distribution.n5.n15            0                       (Unspecified)
system.ruby.network.data_traffic_distribution.n5.n2            0                       (Unspecified)
system.ruby.network.data_traffic_distribution.n5.n3            0                       (Unspecified)
system.ruby.network.data_traffic_distribution.n5.n4            0                       (Unspecified)
system.ruby.network.data_traffic_distribution.n5.n5            0                       (Unspecified)
system.ruby.network.data_traffic_distribution.n5.n6            0                       (Unspecified)
system.ruby.network.data_traffic_distribution.n5.n7            0                       (Unspecified)
system.ruby.network.data_traffic_distribution.n5.n8            0                       (Unspecified)
system.ruby.network.data_traffic_distribution.n5.n9            0                       (Unspecified)
system.ruby.network.data_traffic_distribution.n6.n0            0                       (Unspecified)
system.ruby.network.data_traffic_distribution.n6.n1            0                       (Unspecified)
system.ruby.network.data_traffic_distribution.n6.n10            0                       (Unspecified)
system.ruby.network.data_traffic_distribution.n6.n11            0                       (Unspecified)
system.ruby.network.data_traffic_distribution.n6.n12            0                       (Unspecified)
system.ruby.network.data_traffic_distribution.n6.n13            0                       (Unspecified)
system.ruby.network.data_traffic_distribution.n6.n14            0                       (Unspecified)
system.ruby.network.data_traffic_distribution.n6.n15            0                       (Unspecified)
system.ruby.network.data_traffic_distribution.n6.n2            0                       (Unspecified)
system.ruby.network.data_traffic_distribution.n6.n3            0                       (Unspecified)
system.ruby.network.data_traffic_distribution.n6.n4            0                       (Unspecified)
system.ruby.network.data_traffic_distribution.n6.n5            0                       (Unspecified)
system.ruby.network.data_traffic_distribution.n6.n6            0                       (Unspecified)
system.ruby.network.data_traffic_distribution.n6.n7            0                       (Unspecified)
system.ruby.network.data_traffic_distribution.n6.n8            0                       (Unspecified)
system.ruby.network.data_traffic_distribution.n6.n9            0                       (Unspecified)
system.ruby.network.data_traffic_distribution.n7.n0            0                       (Unspecified)
system.ruby.network.data_traffic_distribution.n7.n1            0                       (Unspecified)
system.ruby.network.data_traffic_distribution.n7.n10            0                       (Unspecified)
system.ruby.network.data_traffic_distribution.n7.n11            0                       (Unspecified)
system.ruby.network.data_traffic_distribution.n7.n12            0                       (Unspecified)
system.ruby.network.data_traffic_distribution.n7.n13            0                       (Unspecified)
system.ruby.network.data_traffic_distribution.n7.n14            0                       (Unspecified)
system.ruby.network.data_traffic_distribution.n7.n15            0                       (Unspecified)
system.ruby.network.data_traffic_distribution.n7.n2            0                       (Unspecified)
system.ruby.network.data_traffic_distribution.n7.n3            0                       (Unspecified)
system.ruby.network.data_traffic_distribution.n7.n4            0                       (Unspecified)
system.ruby.network.data_traffic_distribution.n7.n5            0                       (Unspecified)
system.ruby.network.data_traffic_distribution.n7.n6            0                       (Unspecified)
system.ruby.network.data_traffic_distribution.n7.n7            0                       (Unspecified)
system.ruby.network.data_traffic_distribution.n7.n8            0                       (Unspecified)
system.ruby.network.data_traffic_distribution.n7.n9            0                       (Unspecified)
system.ruby.network.data_traffic_distribution.n8.n0            0                       (Unspecified)
system.ruby.network.data_traffic_distribution.n8.n1            0                       (Unspecified)
system.ruby.network.data_traffic_distribution.n8.n10            0                       (Unspecified)
system.ruby.network.data_traffic_distribution.n8.n11            0                       (Unspecified)
system.ruby.network.data_traffic_distribution.n8.n12            0                       (Unspecified)
system.ruby.network.data_traffic_distribution.n8.n13            0                       (Unspecified)
system.ruby.network.data_traffic_distribution.n8.n14            0                       (Unspecified)
system.ruby.network.data_traffic_distribution.n8.n15            0                       (Unspecified)
system.ruby.network.data_traffic_distribution.n8.n2            0                       (Unspecified)
system.ruby.network.data_traffic_distribution.n8.n3            0                       (Unspecified)
system.ruby.network.data_traffic_distribution.n8.n4            0                       (Unspecified)
system.ruby.network.data_traffic_distribution.n8.n5            0                       (Unspecified)
system.ruby.network.data_traffic_distribution.n8.n6            0                       (Unspecified)
system.ruby.network.data_traffic_distribution.n8.n7            0                       (Unspecified)
system.ruby.network.data_traffic_distribution.n8.n8            0                       (Unspecified)
system.ruby.network.data_traffic_distribution.n8.n9            0                       (Unspecified)
system.ruby.network.data_traffic_distribution.n9.n0            0                       (Unspecified)
system.ruby.network.data_traffic_distribution.n9.n1            0                       (Unspecified)
system.ruby.network.data_traffic_distribution.n9.n10            0                       (Unspecified)
system.ruby.network.data_traffic_distribution.n9.n11            0                       (Unspecified)
system.ruby.network.data_traffic_distribution.n9.n12            0                       (Unspecified)
system.ruby.network.data_traffic_distribution.n9.n13            0                       (Unspecified)
system.ruby.network.data_traffic_distribution.n9.n14            0                       (Unspecified)
system.ruby.network.data_traffic_distribution.n9.n15            0                       (Unspecified)
system.ruby.network.data_traffic_distribution.n9.n2            0                       (Unspecified)
system.ruby.network.data_traffic_distribution.n9.n3            0                       (Unspecified)
system.ruby.network.data_traffic_distribution.n9.n4            0                       (Unspecified)
system.ruby.network.data_traffic_distribution.n9.n5            0                       (Unspecified)
system.ruby.network.data_traffic_distribution.n9.n6            0                       (Unspecified)
system.ruby.network.data_traffic_distribution.n9.n7            0                       (Unspecified)
system.ruby.network.data_traffic_distribution.n9.n8            0                       (Unspecified)
system.ruby.network.data_traffic_distribution.n9.n9            0                       (Unspecified)
system.ruby.network.ext_in_link_utilization      4049973                       (Unspecified)
system.ruby.network.ext_out_link_utilization      4049977                       (Unspecified)
system.ruby.network.flit_network_latency |  7172729500                       |   460464000                       | 11629074500                       (Unspecified)
system.ruby.network.flit_queueing_latency |   557830668                       |    24714000                       |  4801710271                       (Unspecified)
system.ruby.network.flits_injected       |      768959     37.97%     37.97% |       46878      2.31%     40.29% |     1209162     59.71%    100.00% (Unspecified)
system.ruby.network.flits_injected::total      2024999                       (Unspecified)
system.ruby.network.flits_received       |      768960     37.97%     37.97% |       46878      2.31%     40.29% |     1209162     59.71%    100.00% (Unspecified)
system.ruby.network.flits_received::total      2025000                       (Unspecified)
system.ruby.network.int_link_utilization      9207830                       (Unspecified)
system.ruby.network.packet_network_latency |  6040562000                       |   394580500                       |  9182917000                       (Unspecified)
system.ruby.network.packet_queueing_latency |   487341599                       |    20720500                       |  2578885549                       (Unspecified)
system.ruby.network.packets_injected     |      637995     39.71%     39.71% |       40139      2.50%     42.21% |      928518     57.79%    100.00% (Unspecified)
system.ruby.network.packets_injected::total      1606652                       (Unspecified)
system.ruby.network.packets_received     |      637996     39.71%     39.71% |       40139      2.50%     42.21% |      928518     57.79%    100.00% (Unspecified)
system.ruby.network.packets_received::total      1606653                       (Unspecified)
system.ruby.network.routers00.buffer_reads      1652073                       (Unspecified)
system.ruby.network.routers00.buffer_writes      1652073                       (Unspecified)
system.ruby.network.routers00.crossbar_activity       826042                       (Unspecified)
system.ruby.network.routers00.sw_input_arbiter_activity       827148                       (Unspecified)
system.ruby.network.routers00.sw_output_arbiter_activity       826042                       (Unspecified)
system.ruby.network.routers01.buffer_reads       449794                       (Unspecified)
system.ruby.network.routers01.buffer_writes       449794                       (Unspecified)
system.ruby.network.routers01.crossbar_activity       224897                       (Unspecified)
system.ruby.network.routers01.sw_input_arbiter_activity       224897                       (Unspecified)
system.ruby.network.routers01.sw_output_arbiter_activity       224897                       (Unspecified)
system.ruby.network.routers02.buffer_reads       467559                       (Unspecified)
system.ruby.network.routers02.buffer_writes       467559                       (Unspecified)
system.ruby.network.routers02.crossbar_activity       233783                       (Unspecified)
system.ruby.network.routers02.sw_input_arbiter_activity       233783                       (Unspecified)
system.ruby.network.routers02.sw_output_arbiter_activity       233783                       (Unspecified)
system.ruby.network.routers03.buffer_reads       512786                       (Unspecified)
system.ruby.network.routers03.buffer_writes       512786                       (Unspecified)
system.ruby.network.routers03.crossbar_activity       256395                       (Unspecified)
system.ruby.network.routers03.sw_input_arbiter_activity       256395                       (Unspecified)
system.ruby.network.routers03.sw_output_arbiter_activity       256395                       (Unspecified)
system.ruby.network.routers04.buffer_reads       449794                       (Unspecified)
system.ruby.network.routers04.buffer_writes       449794                       (Unspecified)
system.ruby.network.routers04.crossbar_activity       224897                       (Unspecified)
system.ruby.network.routers04.sw_input_arbiter_activity       224897                       (Unspecified)
system.ruby.network.routers04.sw_output_arbiter_activity       224897                       (Unspecified)
system.ruby.network.routers05.buffer_reads      1828552                       (Unspecified)
system.ruby.network.routers05.buffer_writes      1828552                       (Unspecified)
system.ruby.network.routers05.crossbar_activity       914282                       (Unspecified)
system.ruby.network.routers05.sw_input_arbiter_activity       915470                       (Unspecified)
system.ruby.network.routers05.sw_output_arbiter_activity       914282                       (Unspecified)
system.ruby.network.routers06.buffer_reads       551375                       (Unspecified)
system.ruby.network.routers06.buffer_writes       551375                       (Unspecified)
system.ruby.network.routers06.crossbar_activity       275688                       (Unspecified)
system.ruby.network.routers06.sw_input_arbiter_activity       275688                       (Unspecified)
system.ruby.network.routers06.sw_output_arbiter_activity       275688                       (Unspecified)
system.ruby.network.routers07.buffer_reads       575112                       (Unspecified)
system.ruby.network.routers07.buffer_writes       575112                       (Unspecified)
system.ruby.network.routers07.crossbar_activity       287558                       (Unspecified)
system.ruby.network.routers07.sw_input_arbiter_activity       287558                       (Unspecified)
system.ruby.network.routers07.sw_output_arbiter_activity       287558                       (Unspecified)
system.ruby.network.routers08.buffer_reads       467559                       (Unspecified)
system.ruby.network.routers08.buffer_writes       467559                       (Unspecified)
system.ruby.network.routers08.crossbar_activity       233783                       (Unspecified)
system.ruby.network.routers08.sw_input_arbiter_activity       233783                       (Unspecified)
system.ruby.network.routers08.sw_output_arbiter_activity       233783                       (Unspecified)
system.ruby.network.routers09.buffer_reads       551375                       (Unspecified)
system.ruby.network.routers09.buffer_writes       551375                       (Unspecified)
system.ruby.network.routers09.crossbar_activity       275688                       (Unspecified)
system.ruby.network.routers09.sw_input_arbiter_activity       275688                       (Unspecified)
system.ruby.network.routers09.sw_output_arbiter_activity       275688                       (Unspecified)
system.ruby.network.routers10.buffer_reads      1765528                       (Unspecified)
system.ruby.network.routers10.buffer_writes      1765528                       (Unspecified)
system.ruby.network.routers10.crossbar_activity       882768                       (Unspecified)
system.ruby.network.routers10.sw_input_arbiter_activity       883744                       (Unspecified)
system.ruby.network.routers10.sw_output_arbiter_activity       882768                       (Unspecified)
system.ruby.network.routers11.buffer_reads       512650                       (Unspecified)
system.ruby.network.routers11.buffer_writes       512650                       (Unspecified)
system.ruby.network.routers11.crossbar_activity       256325                       (Unspecified)
system.ruby.network.routers11.sw_input_arbiter_activity       256325                       (Unspecified)
system.ruby.network.routers11.sw_output_arbiter_activity       256325                       (Unspecified)
system.ruby.network.routers12.buffer_reads       512786                       (Unspecified)
system.ruby.network.routers12.buffer_writes       512786                       (Unspecified)
system.ruby.network.routers12.crossbar_activity       256395                       (Unspecified)
system.ruby.network.routers12.sw_input_arbiter_activity       256395                       (Unspecified)
system.ruby.network.routers12.sw_output_arbiter_activity       256395                       (Unspecified)
system.ruby.network.routers13.buffer_reads       575112                       (Unspecified)
system.ruby.network.routers13.buffer_writes       575112                       (Unspecified)
system.ruby.network.routers13.crossbar_activity       287558                       (Unspecified)
system.ruby.network.routers13.sw_input_arbiter_activity       287558                       (Unspecified)
system.ruby.network.routers13.sw_output_arbiter_activity       287558                       (Unspecified)
system.ruby.network.routers14.buffer_reads       512650                       (Unspecified)
system.ruby.network.routers14.buffer_writes       512650                       (Unspecified)
system.ruby.network.routers14.crossbar_activity       256325                       (Unspecified)
system.ruby.network.routers14.sw_input_arbiter_activity       256325                       (Unspecified)
system.ruby.network.routers14.sw_output_arbiter_activity       256325                       (Unspecified)
system.ruby.network.routers15.buffer_reads      1873100                       (Unspecified)
system.ruby.network.routers15.buffer_writes      1873100                       (Unspecified)
system.ruby.network.routers15.crossbar_activity       936554                       (Unspecified)
system.ruby.network.routers15.sw_input_arbiter_activity       937712                       (Unspecified)
system.ruby.network.routers15.sw_output_arbiter_activity       936554                       (Unspecified)

---------- End Simulation Statistics   ----------
