
---------- Begin Simulation Statistics ----------
simSeconds                                   0.003011                       # Number of seconds simulated (Second)
simTicks                                   3011130521                       # Number of ticks simulated (Tick)
finalTick                                5012521113015                       # Number of ticks from beginning of simulation (restored from checkpoints and never reset) (Tick)
simFreq                                  1000000000000                       # The number of ticks per simulated second ((Tick/Second))
hostSeconds                                     97.25                       # Real time elapsed on the host (Second)
hostTickRate                                 30962112                       # The number of ticks simulated per host second (ticks/s) ((Tick/Second))
hostMemory                                    1139964                       # Number of bytes of host memory used (Byte)
simInsts                                      7796429                       # Number of instructions simulated (Count)
simOps                                       13409390                       # Number of ops (including micro ops) simulated (Count)
hostInstRate                                    80167                       # Simulator instruction rate (inst/s) ((Count/Second))
hostOpRate                                     137882                       # Simulator op (including micro ops) rate (op/s) ((Count/Second))
system.clk_domain.clock                          1000                       # Clock period in ticks (Tick)
system.cpu0.numCycles                         9042435                       # Number of cpu cycles simulated (Cycle)
system.cpu0.numWorkItemsStarted                     0                       # Number of work items this cpu started (Count)
system.cpu0.numWorkItemsCompleted                   0                       # Number of work items this cpu completed (Count)
system.cpu0.exec_context.thread_0.numInsts      1795494                       # Number of instructions committed (Count)
system.cpu0.exec_context.thread_0.numOps      2777094                       # Number of ops (including micro ops) committed (Count)
system.cpu0.exec_context.thread_0.numIntAluAccesses      1828027                       # Number of integer alu accesses (Count)
system.cpu0.exec_context.thread_0.numFpAluAccesses      1354190                       # Number of float alu accesses (Count)
system.cpu0.exec_context.thread_0.numVecAluAccesses            0                       # Number of vector alu accesses (Count)
system.cpu0.exec_context.thread_0.numCallsReturns          712                       # Number of times a function call or return occured (Count)
system.cpu0.exec_context.thread_0.numCondCtrlInsts       117051                       # Number of instructions that are conditional controls (Count)
system.cpu0.exec_context.thread_0.numIntInsts      1828027                       # Number of integer instructions (Count)
system.cpu0.exec_context.thread_0.numFpInsts      1354190                       # Number of float instructions (Count)
system.cpu0.exec_context.thread_0.numVecInsts            0                       # Number of vector instructions (Count)
system.cpu0.exec_context.thread_0.numIntRegReads      2489612                       # Number of times the integer registers were read (Count)
system.cpu0.exec_context.thread_0.numIntRegWrites      1064832                       # Number of times the integer registers were written (Count)
system.cpu0.exec_context.thread_0.numFpRegReads      2139586                       # Number of times the floating registers were read (Count)
system.cpu0.exec_context.thread_0.numFpRegWrites      1247670                       # Number of times the floating registers were written (Count)
system.cpu0.exec_context.thread_0.numVecRegReads            0                       # Number of times the vector registers were read (Count)
system.cpu0.exec_context.thread_0.numVecRegWrites            0                       # Number of times the vector registers were written (Count)
system.cpu0.exec_context.thread_0.numVecPredRegReads            0                       # Number of times the predicate registers were read (Count)
system.cpu0.exec_context.thread_0.numVecPredRegWrites            0                       # Number of times the predicate registers were written (Count)
system.cpu0.exec_context.thread_0.numCCRegReads       602366                       # Number of times the CC registers were read (Count)
system.cpu0.exec_context.thread_0.numCCRegWrites       661757                       # Number of times the CC registers were written (Count)
system.cpu0.exec_context.thread_0.numMiscRegReads      1000595                       # Number of times the Misc registers were read (Count)
system.cpu0.exec_context.thread_0.numMiscRegWrites          297                       # Number of times the Misc registers were written (Count)
system.cpu0.exec_context.thread_0.numMemRefs       714211                       # Number of memory refs (Count)
system.cpu0.exec_context.thread_0.numLoadInsts       535060                       # Number of load instructions (Count)
system.cpu0.exec_context.thread_0.numStoreInsts       179151                       # Number of store instructions (Count)
system.cpu0.exec_context.thread_0.numIdleCycles            0                       # Number of idle cycles (Cycle)
system.cpu0.exec_context.thread_0.numBusyCycles      9042435                       # Number of busy cycles (Cycle)
system.cpu0.exec_context.thread_0.notIdleFraction            1                       # Percentage of non-idle cycles (Ratio)
system.cpu0.exec_context.thread_0.idleFraction            0                       # Percentage of idle cycles (Ratio)
system.cpu0.exec_context.thread_0.numBranches       127525                       # Number of branches fetched (Count)
system.cpu0.exec_context.thread_0.statExecutedInstType::No_OpClass           20      0.00%      0.00% # Class of executed instruction. (Count)
system.cpu0.exec_context.thread_0.statExecutedInstType::IntAlu      1380960     49.73%     49.73% # Class of executed instruction. (Count)
system.cpu0.exec_context.thread_0.statExecutedInstType::IntMult         9731      0.35%     50.08% # Class of executed instruction. (Count)
system.cpu0.exec_context.thread_0.statExecutedInstType::IntDiv          476      0.02%     50.10% # Class of executed instruction. (Count)
system.cpu0.exec_context.thread_0.statExecutedInstType::FloatAdd       141056      5.08%     55.17% # Class of executed instruction. (Count)
system.cpu0.exec_context.thread_0.statExecutedInstType::FloatCmp            0      0.00%     55.17% # Class of executed instruction. (Count)
system.cpu0.exec_context.thread_0.statExecutedInstType::FloatCvt            0      0.00%     55.17% # Class of executed instruction. (Count)
system.cpu0.exec_context.thread_0.statExecutedInstType::FloatMult            0      0.00%     55.17% # Class of executed instruction. (Count)
system.cpu0.exec_context.thread_0.statExecutedInstType::FloatMultAcc            0      0.00%     55.17% # Class of executed instruction. (Count)
system.cpu0.exec_context.thread_0.statExecutedInstType::FloatDiv            0      0.00%     55.17% # Class of executed instruction. (Count)
system.cpu0.exec_context.thread_0.statExecutedInstType::FloatMisc            0      0.00%     55.17% # Class of executed instruction. (Count)
system.cpu0.exec_context.thread_0.statExecutedInstType::FloatSqrt            0      0.00%     55.17% # Class of executed instruction. (Count)
system.cpu0.exec_context.thread_0.statExecutedInstType::SimdAdd            0      0.00%     55.17% # Class of executed instruction. (Count)
system.cpu0.exec_context.thread_0.statExecutedInstType::SimdAddAcc            0      0.00%     55.17% # Class of executed instruction. (Count)
system.cpu0.exec_context.thread_0.statExecutedInstType::SimdAlu        27740      1.00%     56.17% # Class of executed instruction. (Count)
system.cpu0.exec_context.thread_0.statExecutedInstType::SimdCmp            0      0.00%     56.17% # Class of executed instruction. (Count)
system.cpu0.exec_context.thread_0.statExecutedInstType::SimdCvt            0      0.00%     56.17% # Class of executed instruction. (Count)
system.cpu0.exec_context.thread_0.statExecutedInstType::SimdMisc            0      0.00%     56.17% # Class of executed instruction. (Count)
system.cpu0.exec_context.thread_0.statExecutedInstType::SimdMult            0      0.00%     56.17% # Class of executed instruction. (Count)
system.cpu0.exec_context.thread_0.statExecutedInstType::SimdMultAcc            0      0.00%     56.17% # Class of executed instruction. (Count)
system.cpu0.exec_context.thread_0.statExecutedInstType::SimdShift            0      0.00%     56.17% # Class of executed instruction. (Count)
system.cpu0.exec_context.thread_0.statExecutedInstType::SimdShiftAcc            0      0.00%     56.17% # Class of executed instruction. (Count)
system.cpu0.exec_context.thread_0.statExecutedInstType::SimdDiv            0      0.00%     56.17% # Class of executed instruction. (Count)
system.cpu0.exec_context.thread_0.statExecutedInstType::SimdSqrt            0      0.00%     56.17% # Class of executed instruction. (Count)
system.cpu0.exec_context.thread_0.statExecutedInstType::SimdFloatAdd       188665      6.79%     62.97% # Class of executed instruction. (Count)
system.cpu0.exec_context.thread_0.statExecutedInstType::SimdFloatAlu            0      0.00%     62.97% # Class of executed instruction. (Count)
system.cpu0.exec_context.thread_0.statExecutedInstType::SimdFloatCmp            0      0.00%     62.97% # Class of executed instruction. (Count)
system.cpu0.exec_context.thread_0.statExecutedInstType::SimdFloatCvt            1      0.00%     62.97% # Class of executed instruction. (Count)
system.cpu0.exec_context.thread_0.statExecutedInstType::SimdFloatDiv         5833      0.21%     63.18% # Class of executed instruction. (Count)
system.cpu0.exec_context.thread_0.statExecutedInstType::SimdFloatMisc            0      0.00%     63.18% # Class of executed instruction. (Count)
system.cpu0.exec_context.thread_0.statExecutedInstType::SimdFloatMult       308401     11.11%     74.28% # Class of executed instruction. (Count)
system.cpu0.exec_context.thread_0.statExecutedInstType::SimdFloatMultAcc            0      0.00%     74.28% # Class of executed instruction. (Count)
system.cpu0.exec_context.thread_0.statExecutedInstType::SimdFloatSqrt            0      0.00%     74.28% # Class of executed instruction. (Count)
system.cpu0.exec_context.thread_0.statExecutedInstType::SimdReduceAdd            0      0.00%     74.28% # Class of executed instruction. (Count)
system.cpu0.exec_context.thread_0.statExecutedInstType::SimdReduceAlu            0      0.00%     74.28% # Class of executed instruction. (Count)
system.cpu0.exec_context.thread_0.statExecutedInstType::SimdReduceCmp            0      0.00%     74.28% # Class of executed instruction. (Count)
system.cpu0.exec_context.thread_0.statExecutedInstType::SimdFloatReduceAdd            0      0.00%     74.28% # Class of executed instruction. (Count)
system.cpu0.exec_context.thread_0.statExecutedInstType::SimdFloatReduceCmp            0      0.00%     74.28% # Class of executed instruction. (Count)
system.cpu0.exec_context.thread_0.statExecutedInstType::SimdAes            0      0.00%     74.28% # Class of executed instruction. (Count)
system.cpu0.exec_context.thread_0.statExecutedInstType::SimdAesMix            0      0.00%     74.28% # Class of executed instruction. (Count)
system.cpu0.exec_context.thread_0.statExecutedInstType::SimdSha1Hash            0      0.00%     74.28% # Class of executed instruction. (Count)
system.cpu0.exec_context.thread_0.statExecutedInstType::SimdSha1Hash2            0      0.00%     74.28% # Class of executed instruction. (Count)
system.cpu0.exec_context.thread_0.statExecutedInstType::SimdSha256Hash            0      0.00%     74.28% # Class of executed instruction. (Count)
system.cpu0.exec_context.thread_0.statExecutedInstType::SimdSha256Hash2            0      0.00%     74.28% # Class of executed instruction. (Count)
system.cpu0.exec_context.thread_0.statExecutedInstType::SimdShaSigma2            0      0.00%     74.28% # Class of executed instruction. (Count)
system.cpu0.exec_context.thread_0.statExecutedInstType::SimdShaSigma3            0      0.00%     74.28% # Class of executed instruction. (Count)
system.cpu0.exec_context.thread_0.statExecutedInstType::SimdPredAlu            0      0.00%     74.28% # Class of executed instruction. (Count)
system.cpu0.exec_context.thread_0.statExecutedInstType::MemRead       193529      6.97%     81.25% # Class of executed instruction. (Count)
system.cpu0.exec_context.thread_0.statExecutedInstType::MemWrite        72632      2.62%     83.87% # Class of executed instruction. (Count)
system.cpu0.exec_context.thread_0.statExecutedInstType::FloatMemRead       341531     12.30%     96.16% # Class of executed instruction. (Count)
system.cpu0.exec_context.thread_0.statExecutedInstType::FloatMemWrite       106519      3.84%    100.00% # Class of executed instruction. (Count)
system.cpu0.exec_context.thread_0.statExecutedInstType::IprAccess            0      0.00%    100.00% # Class of executed instruction. (Count)
system.cpu0.exec_context.thread_0.statExecutedInstType::InstPrefetch            0      0.00%    100.00% # Class of executed instruction. (Count)
system.cpu0.exec_context.thread_0.statExecutedInstType::total      2777094                       # Class of executed instruction. (Count)
system.cpu0.interrupts.clk_domain.clock          5328                       # Clock period in ticks (Tick)
system.cpu0.mmu.dtb.rdAccesses                 535207                       # TLB accesses on read requests (Count)
system.cpu0.mmu.dtb.wrAccesses                 179182                       # TLB accesses on write requests (Count)
system.cpu0.mmu.dtb.rdMisses                      148                       # TLB misses on read requests (Count)
system.cpu0.mmu.dtb.wrMisses                       31                       # TLB misses on write requests (Count)
system.cpu0.mmu.dtb.walker.power_state.pwrStateResidencyTicks::UNDEFINED 5012521113015                       # Cumulative time (in ticks) in various power states (Tick)
system.cpu0.mmu.itb.rdAccesses                      0                       # TLB accesses on read requests (Count)
system.cpu0.mmu.itb.wrAccesses                2674763                       # TLB accesses on write requests (Count)
system.cpu0.mmu.itb.rdMisses                        0                       # TLB misses on read requests (Count)
system.cpu0.mmu.itb.wrMisses                       11                       # TLB misses on write requests (Count)
system.cpu0.mmu.itb.walker.power_state.pwrStateResidencyTicks::UNDEFINED 5012521113015                       # Cumulative time (in ticks) in various power states (Tick)
system.cpu0.power_state.pwrStateResidencyTicks::ON   4021868439                       # Cumulative time (in ticks) in various power states (Tick)
system.cpu0.thread_0.numInsts                       0                       # Number of Instructions committed (Count)
system.cpu0.thread_0.numOps                         0                       # Number of Ops committed (Count)
system.cpu0.thread_0.numMemRefs                     0                       # Number of Memory References (Count)
system.cpu1.numCycles                         9042434                       # Number of cpu cycles simulated (Cycle)
system.cpu1.numWorkItemsStarted                     0                       # Number of work items this cpu started (Count)
system.cpu1.numWorkItemsCompleted                   0                       # Number of work items this cpu completed (Count)
system.cpu1.exec_context.thread_0.numInsts      1794204                       # Number of instructions committed (Count)
system.cpu1.exec_context.thread_0.numOps      2910486                       # Number of ops (including micro ops) committed (Count)
system.cpu1.exec_context.thread_0.numIntAluAccesses      1919440                       # Number of integer alu accesses (Count)
system.cpu1.exec_context.thread_0.numFpAluAccesses      1354170                       # Number of float alu accesses (Count)
system.cpu1.exec_context.thread_0.numVecAluAccesses            0                       # Number of vector alu accesses (Count)
system.cpu1.exec_context.thread_0.numCallsReturns          604                       # Number of times a function call or return occured (Count)
system.cpu1.exec_context.thread_0.numCondCtrlInsts       127726                       # Number of instructions that are conditional controls (Count)
system.cpu1.exec_context.thread_0.numIntInsts      1919440                       # Number of integer instructions (Count)
system.cpu1.exec_context.thread_0.numFpInsts      1354170                       # Number of float instructions (Count)
system.cpu1.exec_context.thread_0.numVecInsts            0                       # Number of vector instructions (Count)
system.cpu1.exec_context.thread_0.numIntRegReads      2577897                       # Number of times the integer registers were read (Count)
system.cpu1.exec_context.thread_0.numIntRegWrites      1135766                       # Number of times the integer registers were written (Count)
system.cpu1.exec_context.thread_0.numFpRegReads      2139572                       # Number of times the floating registers were read (Count)
system.cpu1.exec_context.thread_0.numFpRegWrites      1247654                       # Number of times the floating registers were written (Count)
system.cpu1.exec_context.thread_0.numVecRegReads            0                       # Number of times the vector registers were read (Count)
system.cpu1.exec_context.thread_0.numVecRegWrites            0                       # Number of times the vector registers were written (Count)
system.cpu1.exec_context.thread_0.numVecPredRegReads            0                       # Number of times the predicate registers were read (Count)
system.cpu1.exec_context.thread_0.numVecPredRegWrites            0                       # Number of times the predicate registers were written (Count)
system.cpu1.exec_context.thread_0.numCCRegReads       654794                       # Number of times the CC registers were read (Count)
system.cpu1.exec_context.thread_0.numCCRegWrites       619574                       # Number of times the CC registers were written (Count)
system.cpu1.exec_context.thread_0.numMiscRegReads      1062303                       # Number of times the Misc registers were read (Count)
system.cpu1.exec_context.thread_0.numMiscRegWrites          195                       # Number of times the Misc registers were written (Count)
system.cpu1.exec_context.thread_0.numMemRefs       754784                       # Number of memory refs (Count)
system.cpu1.exec_context.thread_0.numLoadInsts       576311                       # Number of load instructions (Count)
system.cpu1.exec_context.thread_0.numStoreInsts       178473                       # Number of store instructions (Count)
system.cpu1.exec_context.thread_0.numIdleCycles            0                       # Number of idle cycles (Cycle)
system.cpu1.exec_context.thread_0.numBusyCycles      9042434                       # Number of busy cycles (Cycle)
system.cpu1.exec_context.thread_0.notIdleFraction            1                       # Percentage of non-idle cycles (Ratio)
system.cpu1.exec_context.thread_0.idleFraction            0                       # Percentage of idle cycles (Ratio)
system.cpu1.exec_context.thread_0.numBranches       138084                       # Number of branches fetched (Count)
system.cpu1.exec_context.thread_0.statExecutedInstType::No_OpClass           29      0.00%      0.00% # Class of executed instruction. (Count)
system.cpu1.exec_context.thread_0.statExecutedInstType::IntAlu      1473798     50.64%     50.64% # Class of executed instruction. (Count)
system.cpu1.exec_context.thread_0.statExecutedInstType::IntMult         9726      0.33%     50.97% # Class of executed instruction. (Count)
system.cpu1.exec_context.thread_0.statExecutedInstType::IntDiv          462      0.02%     50.99% # Class of executed instruction. (Count)
system.cpu1.exec_context.thread_0.statExecutedInstType::FloatAdd       141051      4.85%     55.83% # Class of executed instruction. (Count)
system.cpu1.exec_context.thread_0.statExecutedInstType::FloatCmp            0      0.00%     55.83% # Class of executed instruction. (Count)
system.cpu1.exec_context.thread_0.statExecutedInstType::FloatCvt            0      0.00%     55.83% # Class of executed instruction. (Count)
system.cpu1.exec_context.thread_0.statExecutedInstType::FloatMult            0      0.00%     55.83% # Class of executed instruction. (Count)
system.cpu1.exec_context.thread_0.statExecutedInstType::FloatMultAcc            0      0.00%     55.83% # Class of executed instruction. (Count)
system.cpu1.exec_context.thread_0.statExecutedInstType::FloatDiv            0      0.00%     55.83% # Class of executed instruction. (Count)
system.cpu1.exec_context.thread_0.statExecutedInstType::FloatMisc            0      0.00%     55.83% # Class of executed instruction. (Count)
system.cpu1.exec_context.thread_0.statExecutedInstType::FloatSqrt            0      0.00%     55.83% # Class of executed instruction. (Count)
system.cpu1.exec_context.thread_0.statExecutedInstType::SimdAdd            0      0.00%     55.83% # Class of executed instruction. (Count)
system.cpu1.exec_context.thread_0.statExecutedInstType::SimdAddAcc            0      0.00%     55.83% # Class of executed instruction. (Count)
system.cpu1.exec_context.thread_0.statExecutedInstType::SimdAlu        27740      0.95%     56.79% # Class of executed instruction. (Count)
system.cpu1.exec_context.thread_0.statExecutedInstType::SimdCmp            0      0.00%     56.79% # Class of executed instruction. (Count)
system.cpu1.exec_context.thread_0.statExecutedInstType::SimdCvt            0      0.00%     56.79% # Class of executed instruction. (Count)
system.cpu1.exec_context.thread_0.statExecutedInstType::SimdMisc            0      0.00%     56.79% # Class of executed instruction. (Count)
system.cpu1.exec_context.thread_0.statExecutedInstType::SimdMult            0      0.00%     56.79% # Class of executed instruction. (Count)
system.cpu1.exec_context.thread_0.statExecutedInstType::SimdMultAcc            0      0.00%     56.79% # Class of executed instruction. (Count)
system.cpu1.exec_context.thread_0.statExecutedInstType::SimdShift            0      0.00%     56.79% # Class of executed instruction. (Count)
system.cpu1.exec_context.thread_0.statExecutedInstType::SimdShiftAcc            0      0.00%     56.79% # Class of executed instruction. (Count)
system.cpu1.exec_context.thread_0.statExecutedInstType::SimdDiv            0      0.00%     56.79% # Class of executed instruction. (Count)
system.cpu1.exec_context.thread_0.statExecutedInstType::SimdSqrt            0      0.00%     56.79% # Class of executed instruction. (Count)
system.cpu1.exec_context.thread_0.statExecutedInstType::SimdFloatAdd       188664      6.48%     63.27% # Class of executed instruction. (Count)
system.cpu1.exec_context.thread_0.statExecutedInstType::SimdFloatAlu            0      0.00%     63.27% # Class of executed instruction. (Count)
system.cpu1.exec_context.thread_0.statExecutedInstType::SimdFloatCmp            0      0.00%     63.27% # Class of executed instruction. (Count)
system.cpu1.exec_context.thread_0.statExecutedInstType::SimdFloatCvt            0      0.00%     63.27% # Class of executed instruction. (Count)
system.cpu1.exec_context.thread_0.statExecutedInstType::SimdFloatDiv         5832      0.20%     63.47% # Class of executed instruction. (Count)
system.cpu1.exec_context.thread_0.statExecutedInstType::SimdFloatMisc            0      0.00%     63.47% # Class of executed instruction. (Count)
system.cpu1.exec_context.thread_0.statExecutedInstType::SimdFloatMult       308400     10.60%     74.07% # Class of executed instruction. (Count)
system.cpu1.exec_context.thread_0.statExecutedInstType::SimdFloatMultAcc            0      0.00%     74.07% # Class of executed instruction. (Count)
system.cpu1.exec_context.thread_0.statExecutedInstType::SimdFloatSqrt            0      0.00%     74.07% # Class of executed instruction. (Count)
system.cpu1.exec_context.thread_0.statExecutedInstType::SimdReduceAdd            0      0.00%     74.07% # Class of executed instruction. (Count)
system.cpu1.exec_context.thread_0.statExecutedInstType::SimdReduceAlu            0      0.00%     74.07% # Class of executed instruction. (Count)
system.cpu1.exec_context.thread_0.statExecutedInstType::SimdReduceCmp            0      0.00%     74.07% # Class of executed instruction. (Count)
system.cpu1.exec_context.thread_0.statExecutedInstType::SimdFloatReduceAdd            0      0.00%     74.07% # Class of executed instruction. (Count)
system.cpu1.exec_context.thread_0.statExecutedInstType::SimdFloatReduceCmp            0      0.00%     74.07% # Class of executed instruction. (Count)
system.cpu1.exec_context.thread_0.statExecutedInstType::SimdAes            0      0.00%     74.07% # Class of executed instruction. (Count)
system.cpu1.exec_context.thread_0.statExecutedInstType::SimdAesMix            0      0.00%     74.07% # Class of executed instruction. (Count)
system.cpu1.exec_context.thread_0.statExecutedInstType::SimdSha1Hash            0      0.00%     74.07% # Class of executed instruction. (Count)
system.cpu1.exec_context.thread_0.statExecutedInstType::SimdSha1Hash2            0      0.00%     74.07% # Class of executed instruction. (Count)
system.cpu1.exec_context.thread_0.statExecutedInstType::SimdSha256Hash            0      0.00%     74.07% # Class of executed instruction. (Count)
system.cpu1.exec_context.thread_0.statExecutedInstType::SimdSha256Hash2            0      0.00%     74.07% # Class of executed instruction. (Count)
system.cpu1.exec_context.thread_0.statExecutedInstType::SimdShaSigma2            0      0.00%     74.07% # Class of executed instruction. (Count)
system.cpu1.exec_context.thread_0.statExecutedInstType::SimdShaSigma3            0      0.00%     74.07% # Class of executed instruction. (Count)
system.cpu1.exec_context.thread_0.statExecutedInstType::SimdPredAlu            0      0.00%     74.07% # Class of executed instruction. (Count)
system.cpu1.exec_context.thread_0.statExecutedInstType::MemRead       234788      8.07%     82.13% # Class of executed instruction. (Count)
system.cpu1.exec_context.thread_0.statExecutedInstType::MemWrite        71957      2.47%     84.61% # Class of executed instruction. (Count)
system.cpu1.exec_context.thread_0.statExecutedInstType::FloatMemRead       341523     11.73%     96.34% # Class of executed instruction. (Count)
system.cpu1.exec_context.thread_0.statExecutedInstType::FloatMemWrite       106516      3.66%    100.00% # Class of executed instruction. (Count)
system.cpu1.exec_context.thread_0.statExecutedInstType::IprAccess            0      0.00%    100.00% # Class of executed instruction. (Count)
system.cpu1.exec_context.thread_0.statExecutedInstType::InstPrefetch            0      0.00%    100.00% # Class of executed instruction. (Count)
system.cpu1.exec_context.thread_0.statExecutedInstType::total      2910486                       # Class of executed instruction. (Count)
system.cpu1.interrupts.clk_domain.clock          5328                       # Clock period in ticks (Tick)
system.cpu1.mmu.dtb.rdAccesses                 576470                       # TLB accesses on read requests (Count)
system.cpu1.mmu.dtb.wrAccesses                 178505                       # TLB accesses on write requests (Count)
system.cpu1.mmu.dtb.rdMisses                      159                       # TLB misses on read requests (Count)
system.cpu1.mmu.dtb.wrMisses                       32                       # TLB misses on write requests (Count)
system.cpu1.mmu.dtb.walker.power_state.pwrStateResidencyTicks::UNDEFINED 5012521113015                       # Cumulative time (in ticks) in various power states (Tick)
system.cpu1.mmu.itb.rdAccesses                      0                       # TLB accesses on read requests (Count)
system.cpu1.mmu.itb.wrAccesses                2713411                       # TLB accesses on write requests (Count)
system.cpu1.mmu.itb.rdMisses                        0                       # TLB misses on read requests (Count)
system.cpu1.mmu.itb.wrMisses                       10                       # TLB misses on write requests (Count)
system.cpu1.mmu.itb.walker.power_state.pwrStateResidencyTicks::UNDEFINED 5012521113015                       # Cumulative time (in ticks) in various power states (Tick)
system.cpu1.power_state.pwrStateResidencyTicks::ON   8023100535                       # Cumulative time (in ticks) in various power states (Tick)
system.cpu1.thread_0.numInsts                       0                       # Number of Instructions committed (Count)
system.cpu1.thread_0.numOps                         0                       # Number of Ops committed (Count)
system.cpu1.thread_0.numMemRefs                     0                       # Number of Memory References (Count)
system.cpu2.numCycles                         9042434                       # Number of cpu cycles simulated (Cycle)
system.cpu2.numWorkItemsStarted                     0                       # Number of work items this cpu started (Count)
system.cpu2.numWorkItemsCompleted                   0                       # Number of work items this cpu completed (Count)
system.cpu2.exec_context.thread_0.numInsts      2426771                       # Number of instructions committed (Count)
system.cpu2.exec_context.thread_0.numOps      4915501                       # Number of ops (including micro ops) committed (Count)
system.cpu2.exec_context.thread_0.numIntAluAccesses      4070785                       # Number of integer alu accesses (Count)
system.cpu2.exec_context.thread_0.numFpAluAccesses       465048                       # Number of float alu accesses (Count)
system.cpu2.exec_context.thread_0.numVecAluAccesses            0                       # Number of vector alu accesses (Count)
system.cpu2.exec_context.thread_0.numCallsReturns          616                       # Number of times a function call or return occured (Count)
system.cpu2.exec_context.thread_0.numCondCtrlInsts       621949                       # Number of instructions that are conditional controls (Count)
system.cpu2.exec_context.thread_0.numIntInsts      4070785                       # Number of integer instructions (Count)
system.cpu2.exec_context.thread_0.numFpInsts       465048                       # Number of float instructions (Count)
system.cpu2.exec_context.thread_0.numVecInsts            0                       # Number of vector instructions (Count)
system.cpu2.exec_context.thread_0.numIntRegReads      4299596                       # Number of times the integer registers were read (Count)
system.cpu2.exec_context.thread_0.numIntRegWrites      2642960                       # Number of times the integer registers were written (Count)
system.cpu2.exec_context.thread_0.numFpRegReads       729370                       # Number of times the floating registers were read (Count)
system.cpu2.exec_context.thread_0.numFpRegWrites       427214                       # Number of times the floating registers were written (Count)
system.cpu2.exec_context.thread_0.numVecRegReads            0                       # Number of times the vector registers were read (Count)
system.cpu2.exec_context.thread_0.numVecRegWrites            0                       # Number of times the vector registers were written (Count)
system.cpu2.exec_context.thread_0.numVecPredRegReads            0                       # Number of times the predicate registers were read (Count)
system.cpu2.exec_context.thread_0.numVecPredRegWrites            0                       # Number of times the predicate registers were written (Count)
system.cpu2.exec_context.thread_0.numCCRegReads      3120037                       # Number of times the CC registers were read (Count)
system.cpu2.exec_context.thread_0.numCCRegWrites      1517796                       # Number of times the CC registers were written (Count)
system.cpu2.exec_context.thread_0.numMiscRegReads      2030584                       # Number of times the Misc registers were read (Count)
system.cpu2.exec_context.thread_0.numMiscRegWrites          238                       # Number of times the Misc registers were written (Count)
system.cpu2.exec_context.thread_0.numMemRefs       766321                       # Number of memory refs (Count)
system.cpu2.exec_context.thread_0.numLoadInsts       702884                       # Number of load instructions (Count)
system.cpu2.exec_context.thread_0.numStoreInsts        63437                       # Number of store instructions (Count)
system.cpu2.exec_context.thread_0.numIdleCycles            0                       # Number of idle cycles (Cycle)
system.cpu2.exec_context.thread_0.numBusyCycles      9042434                       # Number of busy cycles (Cycle)
system.cpu2.exec_context.thread_0.notIdleFraction            1                       # Percentage of non-idle cycles (Ratio)
system.cpu2.exec_context.thread_0.idleFraction            0                       # Percentage of idle cycles (Ratio)
system.cpu2.exec_context.thread_0.numBranches       626810                       # Number of branches fetched (Count)
system.cpu2.exec_context.thread_0.statExecutedInstType::No_OpClass           29      0.00%      0.00% # Class of executed instruction. (Count)
system.cpu2.exec_context.thread_0.statExecutedInstType::IntAlu      3913578     79.62%     79.62% # Class of executed instruction. (Count)
system.cpu2.exec_context.thread_0.statExecutedInstType::IntMult         3365      0.07%     79.69% # Class of executed instruction. (Count)
system.cpu2.exec_context.thread_0.statExecutedInstType::IntDiv          481      0.01%     79.70% # Class of executed instruction. (Count)
system.cpu2.exec_context.thread_0.statExecutedInstType::FloatAdd        49651      1.01%     80.71% # Class of executed instruction. (Count)
system.cpu2.exec_context.thread_0.statExecutedInstType::FloatCmp            0      0.00%     80.71% # Class of executed instruction. (Count)
system.cpu2.exec_context.thread_0.statExecutedInstType::FloatCvt            0      0.00%     80.71% # Class of executed instruction. (Count)
system.cpu2.exec_context.thread_0.statExecutedInstType::FloatMult            0      0.00%     80.71% # Class of executed instruction. (Count)
system.cpu2.exec_context.thread_0.statExecutedInstType::FloatMultAcc            0      0.00%     80.71% # Class of executed instruction. (Count)
system.cpu2.exec_context.thread_0.statExecutedInstType::FloatDiv            0      0.00%     80.71% # Class of executed instruction. (Count)
system.cpu2.exec_context.thread_0.statExecutedInstType::FloatMisc            0      0.00%     80.71% # Class of executed instruction. (Count)
system.cpu2.exec_context.thread_0.statExecutedInstType::FloatSqrt            0      0.00%     80.71% # Class of executed instruction. (Count)
system.cpu2.exec_context.thread_0.statExecutedInstType::SimdAdd            0      0.00%     80.71% # Class of executed instruction. (Count)
system.cpu2.exec_context.thread_0.statExecutedInstType::SimdAddAcc            0      0.00%     80.71% # Class of executed instruction. (Count)
system.cpu2.exec_context.thread_0.statExecutedInstType::SimdAlu        12140      0.25%     80.95% # Class of executed instruction. (Count)
system.cpu2.exec_context.thread_0.statExecutedInstType::SimdCmp            0      0.00%     80.95% # Class of executed instruction. (Count)
system.cpu2.exec_context.thread_0.statExecutedInstType::SimdCvt            0      0.00%     80.95% # Class of executed instruction. (Count)
system.cpu2.exec_context.thread_0.statExecutedInstType::SimdMisc            0      0.00%     80.95% # Class of executed instruction. (Count)
system.cpu2.exec_context.thread_0.statExecutedInstType::SimdMult            0      0.00%     80.95% # Class of executed instruction. (Count)
system.cpu2.exec_context.thread_0.statExecutedInstType::SimdMultAcc            0      0.00%     80.95% # Class of executed instruction. (Count)
system.cpu2.exec_context.thread_0.statExecutedInstType::SimdShift            0      0.00%     80.95% # Class of executed instruction. (Count)
system.cpu2.exec_context.thread_0.statExecutedInstType::SimdShiftAcc            0      0.00%     80.95% # Class of executed instruction. (Count)
system.cpu2.exec_context.thread_0.statExecutedInstType::SimdDiv            0      0.00%     80.95% # Class of executed instruction. (Count)
system.cpu2.exec_context.thread_0.statExecutedInstType::SimdSqrt            0      0.00%     80.95% # Class of executed instruction. (Count)
system.cpu2.exec_context.thread_0.statExecutedInstType::SimdFloatAdd        63464      1.29%     82.24% # Class of executed instruction. (Count)
system.cpu2.exec_context.thread_0.statExecutedInstType::SimdFloatAlu            0      0.00%     82.24% # Class of executed instruction. (Count)
system.cpu2.exec_context.thread_0.statExecutedInstType::SimdFloatCmp            0      0.00%     82.24% # Class of executed instruction. (Count)
system.cpu2.exec_context.thread_0.statExecutedInstType::SimdFloatCvt            0      0.00%     82.24% # Class of executed instruction. (Count)
system.cpu2.exec_context.thread_0.statExecutedInstType::SimdFloatDiv         2232      0.05%     82.29% # Class of executed instruction. (Count)
system.cpu2.exec_context.thread_0.statExecutedInstType::SimdFloatMisc            0      0.00%     82.29% # Class of executed instruction. (Count)
system.cpu2.exec_context.thread_0.statExecutedInstType::SimdFloatMult       104240      2.12%     84.41% # Class of executed instruction. (Count)
system.cpu2.exec_context.thread_0.statExecutedInstType::SimdFloatMultAcc            0      0.00%     84.41% # Class of executed instruction. (Count)
system.cpu2.exec_context.thread_0.statExecutedInstType::SimdFloatSqrt            0      0.00%     84.41% # Class of executed instruction. (Count)
system.cpu2.exec_context.thread_0.statExecutedInstType::SimdReduceAdd            0      0.00%     84.41% # Class of executed instruction. (Count)
system.cpu2.exec_context.thread_0.statExecutedInstType::SimdReduceAlu            0      0.00%     84.41% # Class of executed instruction. (Count)
system.cpu2.exec_context.thread_0.statExecutedInstType::SimdReduceCmp            0      0.00%     84.41% # Class of executed instruction. (Count)
system.cpu2.exec_context.thread_0.statExecutedInstType::SimdFloatReduceAdd            0      0.00%     84.41% # Class of executed instruction. (Count)
system.cpu2.exec_context.thread_0.statExecutedInstType::SimdFloatReduceCmp            0      0.00%     84.41% # Class of executed instruction. (Count)
system.cpu2.exec_context.thread_0.statExecutedInstType::SimdAes            0      0.00%     84.41% # Class of executed instruction. (Count)
system.cpu2.exec_context.thread_0.statExecutedInstType::SimdAesMix            0      0.00%     84.41% # Class of executed instruction. (Count)
system.cpu2.exec_context.thread_0.statExecutedInstType::SimdSha1Hash            0      0.00%     84.41% # Class of executed instruction. (Count)
system.cpu2.exec_context.thread_0.statExecutedInstType::SimdSha1Hash2            0      0.00%     84.41% # Class of executed instruction. (Count)
system.cpu2.exec_context.thread_0.statExecutedInstType::SimdSha256Hash            0      0.00%     84.41% # Class of executed instruction. (Count)
system.cpu2.exec_context.thread_0.statExecutedInstType::SimdSha256Hash2            0      0.00%     84.41% # Class of executed instruction. (Count)
system.cpu2.exec_context.thread_0.statExecutedInstType::SimdShaSigma2            0      0.00%     84.41% # Class of executed instruction. (Count)
system.cpu2.exec_context.thread_0.statExecutedInstType::SimdShaSigma3            0      0.00%     84.41% # Class of executed instruction. (Count)
system.cpu2.exec_context.thread_0.statExecutedInstType::SimdPredAlu            0      0.00%     84.41% # Class of executed instruction. (Count)
system.cpu2.exec_context.thread_0.statExecutedInstType::MemRead       586121     11.92%     96.33% # Class of executed instruction. (Count)
system.cpu2.exec_context.thread_0.statExecutedInstType::MemWrite        25603      0.52%     96.85% # Class of executed instruction. (Count)
system.cpu2.exec_context.thread_0.statExecutedInstType::FloatMemRead       116763      2.38%     99.23% # Class of executed instruction. (Count)
system.cpu2.exec_context.thread_0.statExecutedInstType::FloatMemWrite        37834      0.77%    100.00% # Class of executed instruction. (Count)
system.cpu2.exec_context.thread_0.statExecutedInstType::IprAccess            0      0.00%    100.00% # Class of executed instruction. (Count)
system.cpu2.exec_context.thread_0.statExecutedInstType::InstPrefetch            0      0.00%    100.00% # Class of executed instruction. (Count)
system.cpu2.exec_context.thread_0.statExecutedInstType::total      4915501                       # Class of executed instruction. (Count)
system.cpu2.interrupts.clk_domain.clock          5328                       # Clock period in ticks (Tick)
system.cpu2.mmu.dtb.rdAccesses                 702968                       # TLB accesses on read requests (Count)
system.cpu2.mmu.dtb.wrAccesses                  63455                       # TLB accesses on write requests (Count)
system.cpu2.mmu.dtb.rdMisses                       84                       # TLB misses on read requests (Count)
system.cpu2.mmu.dtb.wrMisses                       18                       # TLB misses on write requests (Count)
system.cpu2.mmu.dtb.walker.power_state.pwrStateResidencyTicks::UNDEFINED 5012521113015                       # Cumulative time (in ticks) in various power states (Tick)
system.cpu2.mmu.itb.rdAccesses                      0                       # TLB accesses on read requests (Count)
system.cpu2.mmu.itb.wrAccesses                3247924                       # TLB accesses on write requests (Count)
system.cpu2.mmu.itb.rdMisses                        0                       # TLB misses on read requests (Count)
system.cpu2.mmu.itb.wrMisses                       11                       # TLB misses on write requests (Count)
system.cpu2.mmu.itb.walker.power_state.pwrStateResidencyTicks::UNDEFINED 5012521113015                       # Cumulative time (in ticks) in various power states (Tick)
system.cpu2.power_state.pwrStateResidencyTicks::ON   8024331303                       # Cumulative time (in ticks) in various power states (Tick)
system.cpu2.thread_0.numInsts                       0                       # Number of Instructions committed (Count)
system.cpu2.thread_0.numOps                         0                       # Number of Ops committed (Count)
system.cpu2.thread_0.numMemRefs                     0                       # Number of Memory References (Count)
system.cpu3.numCycles                         9042435                       # Number of cpu cycles simulated (Cycle)
system.cpu3.numWorkItemsStarted                     0                       # Number of work items this cpu started (Count)
system.cpu3.numWorkItemsCompleted                   0                       # Number of work items this cpu completed (Count)
system.cpu3.exec_context.thread_0.numInsts      1779662                       # Number of instructions committed (Count)
system.cpu3.exec_context.thread_0.numOps      2805794                       # Number of ops (including micro ops) committed (Count)
system.cpu3.exec_context.thread_0.numIntAluAccesses      1841301                       # Number of integer alu accesses (Count)
system.cpu3.exec_context.thread_0.numFpAluAccesses      1354170                       # Number of float alu accesses (Count)
system.cpu3.exec_context.thread_0.numVecAluAccesses            0                       # Number of vector alu accesses (Count)
system.cpu3.exec_context.thread_0.numCallsReturns          580                       # Number of times a function call or return occured (Count)
system.cpu3.exec_context.thread_0.numCondCtrlInsts       117408                       # Number of instructions that are conditional controls (Count)
system.cpu3.exec_context.thread_0.numIntInsts      1841301                       # Number of integer instructions (Count)
system.cpu3.exec_context.thread_0.numFpInsts      1354170                       # Number of float instructions (Count)
system.cpu3.exec_context.thread_0.numVecInsts            0                       # Number of vector instructions (Count)
system.cpu3.exec_context.thread_0.numIntRegReads      2499832                       # Number of times the integer registers were read (Count)
system.cpu3.exec_context.thread_0.numIntRegWrites      1078292                       # Number of times the integer registers were written (Count)
system.cpu3.exec_context.thread_0.numFpRegReads      2139572                       # Number of times the floating registers were read (Count)
system.cpu3.exec_context.thread_0.numFpRegWrites      1247654                       # Number of times the floating registers were written (Count)
system.cpu3.exec_context.thread_0.numVecRegReads            0                       # Number of times the vector registers were read (Count)
system.cpu3.exec_context.thread_0.numVecRegWrites            0                       # Number of times the vector registers were written (Count)
system.cpu3.exec_context.thread_0.numVecPredRegReads            0                       # Number of times the predicate registers were read (Count)
system.cpu3.exec_context.thread_0.numVecPredRegWrites            0                       # Number of times the predicate registers were written (Count)
system.cpu3.exec_context.thread_0.numCCRegReads       603251                       # Number of times the CC registers were read (Count)
system.cpu3.exec_context.thread_0.numCCRegWrites       631674                       # Number of times the CC registers were written (Count)
system.cpu3.exec_context.thread_0.numMiscRegReads      1014931                       # Number of times the Misc registers were read (Count)
system.cpu3.exec_context.thread_0.numMiscRegWrites          208                       # Number of times the Misc registers were written (Count)
system.cpu3.exec_context.thread_0.numMemRefs       728135                       # Number of memory refs (Count)
system.cpu3.exec_context.thread_0.numLoadInsts       549695                       # Number of load instructions (Count)
system.cpu3.exec_context.thread_0.numStoreInsts       178440                       # Number of store instructions (Count)
system.cpu3.exec_context.thread_0.numIdleCycles            0                       # Number of idle cycles (Cycle)
system.cpu3.exec_context.thread_0.numBusyCycles      9042435                       # Number of busy cycles (Cycle)
system.cpu3.exec_context.thread_0.notIdleFraction            1                       # Percentage of non-idle cycles (Ratio)
system.cpu3.exec_context.thread_0.idleFraction            0                       # Percentage of idle cycles (Ratio)
system.cpu3.exec_context.thread_0.numBranches       127737                       # Number of branches fetched (Count)
system.cpu3.exec_context.thread_0.statExecutedInstType::No_OpClass           26      0.00%      0.00% # Class of executed instruction. (Count)
system.cpu3.exec_context.thread_0.statExecutedInstType::IntAlu      1395758     49.75%     49.75% # Class of executed instruction. (Count)
system.cpu3.exec_context.thread_0.statExecutedInstType::IntMult         9726      0.35%     50.09% # Class of executed instruction. (Count)
system.cpu3.exec_context.thread_0.statExecutedInstType::IntDiv          462      0.02%     50.11% # Class of executed instruction. (Count)
system.cpu3.exec_context.thread_0.statExecutedInstType::FloatAdd       141051      5.03%     55.14% # Class of executed instruction. (Count)
system.cpu3.exec_context.thread_0.statExecutedInstType::FloatCmp            0      0.00%     55.14% # Class of executed instruction. (Count)
system.cpu3.exec_context.thread_0.statExecutedInstType::FloatCvt            0      0.00%     55.14% # Class of executed instruction. (Count)
system.cpu3.exec_context.thread_0.statExecutedInstType::FloatMult            0      0.00%     55.14% # Class of executed instruction. (Count)
system.cpu3.exec_context.thread_0.statExecutedInstType::FloatMultAcc            0      0.00%     55.14% # Class of executed instruction. (Count)
system.cpu3.exec_context.thread_0.statExecutedInstType::FloatDiv            0      0.00%     55.14% # Class of executed instruction. (Count)
system.cpu3.exec_context.thread_0.statExecutedInstType::FloatMisc            0      0.00%     55.14% # Class of executed instruction. (Count)
system.cpu3.exec_context.thread_0.statExecutedInstType::FloatSqrt            0      0.00%     55.14% # Class of executed instruction. (Count)
system.cpu3.exec_context.thread_0.statExecutedInstType::SimdAdd            0      0.00%     55.14% # Class of executed instruction. (Count)
system.cpu3.exec_context.thread_0.statExecutedInstType::SimdAddAcc            0      0.00%     55.14% # Class of executed instruction. (Count)
system.cpu3.exec_context.thread_0.statExecutedInstType::SimdAlu        27740      0.99%     56.13% # Class of executed instruction. (Count)
system.cpu3.exec_context.thread_0.statExecutedInstType::SimdCmp            0      0.00%     56.13% # Class of executed instruction. (Count)
system.cpu3.exec_context.thread_0.statExecutedInstType::SimdCvt            0      0.00%     56.13% # Class of executed instruction. (Count)
system.cpu3.exec_context.thread_0.statExecutedInstType::SimdMisc            0      0.00%     56.13% # Class of executed instruction. (Count)
system.cpu3.exec_context.thread_0.statExecutedInstType::SimdMult            0      0.00%     56.13% # Class of executed instruction. (Count)
system.cpu3.exec_context.thread_0.statExecutedInstType::SimdMultAcc            0      0.00%     56.13% # Class of executed instruction. (Count)
system.cpu3.exec_context.thread_0.statExecutedInstType::SimdShift            0      0.00%     56.13% # Class of executed instruction. (Count)
system.cpu3.exec_context.thread_0.statExecutedInstType::SimdShiftAcc            0      0.00%     56.13% # Class of executed instruction. (Count)
system.cpu3.exec_context.thread_0.statExecutedInstType::SimdDiv            0      0.00%     56.13% # Class of executed instruction. (Count)
system.cpu3.exec_context.thread_0.statExecutedInstType::SimdSqrt            0      0.00%     56.13% # Class of executed instruction. (Count)
system.cpu3.exec_context.thread_0.statExecutedInstType::SimdFloatAdd       188664      6.72%     62.85% # Class of executed instruction. (Count)
system.cpu3.exec_context.thread_0.statExecutedInstType::SimdFloatAlu            0      0.00%     62.85% # Class of executed instruction. (Count)
system.cpu3.exec_context.thread_0.statExecutedInstType::SimdFloatCmp            0      0.00%     62.85% # Class of executed instruction. (Count)
system.cpu3.exec_context.thread_0.statExecutedInstType::SimdFloatCvt            0      0.00%     62.85% # Class of executed instruction. (Count)
system.cpu3.exec_context.thread_0.statExecutedInstType::SimdFloatDiv         5832      0.21%     63.06% # Class of executed instruction. (Count)
system.cpu3.exec_context.thread_0.statExecutedInstType::SimdFloatMisc            0      0.00%     63.06% # Class of executed instruction. (Count)
system.cpu3.exec_context.thread_0.statExecutedInstType::SimdFloatMult       308400     10.99%     74.05% # Class of executed instruction. (Count)
system.cpu3.exec_context.thread_0.statExecutedInstType::SimdFloatMultAcc            0      0.00%     74.05% # Class of executed instruction. (Count)
system.cpu3.exec_context.thread_0.statExecutedInstType::SimdFloatSqrt            0      0.00%     74.05% # Class of executed instruction. (Count)
system.cpu3.exec_context.thread_0.statExecutedInstType::SimdReduceAdd            0      0.00%     74.05% # Class of executed instruction. (Count)
system.cpu3.exec_context.thread_0.statExecutedInstType::SimdReduceAlu            0      0.00%     74.05% # Class of executed instruction. (Count)
system.cpu3.exec_context.thread_0.statExecutedInstType::SimdReduceCmp            0      0.00%     74.05% # Class of executed instruction. (Count)
system.cpu3.exec_context.thread_0.statExecutedInstType::SimdFloatReduceAdd            0      0.00%     74.05% # Class of executed instruction. (Count)
system.cpu3.exec_context.thread_0.statExecutedInstType::SimdFloatReduceCmp            0      0.00%     74.05% # Class of executed instruction. (Count)
system.cpu3.exec_context.thread_0.statExecutedInstType::SimdAes            0      0.00%     74.05% # Class of executed instruction. (Count)
system.cpu3.exec_context.thread_0.statExecutedInstType::SimdAesMix            0      0.00%     74.05% # Class of executed instruction. (Count)
system.cpu3.exec_context.thread_0.statExecutedInstType::SimdSha1Hash            0      0.00%     74.05% # Class of executed instruction. (Count)
system.cpu3.exec_context.thread_0.statExecutedInstType::SimdSha1Hash2            0      0.00%     74.05% # Class of executed instruction. (Count)
system.cpu3.exec_context.thread_0.statExecutedInstType::SimdSha256Hash            0      0.00%     74.05% # Class of executed instruction. (Count)
system.cpu3.exec_context.thread_0.statExecutedInstType::SimdSha256Hash2            0      0.00%     74.05% # Class of executed instruction. (Count)
system.cpu3.exec_context.thread_0.statExecutedInstType::SimdShaSigma2            0      0.00%     74.05% # Class of executed instruction. (Count)
system.cpu3.exec_context.thread_0.statExecutedInstType::SimdShaSigma3            0      0.00%     74.05% # Class of executed instruction. (Count)
system.cpu3.exec_context.thread_0.statExecutedInstType::SimdPredAlu            0      0.00%     74.05% # Class of executed instruction. (Count)
system.cpu3.exec_context.thread_0.statExecutedInstType::MemRead       208172      7.42%     81.47% # Class of executed instruction. (Count)
system.cpu3.exec_context.thread_0.statExecutedInstType::MemWrite        71924      2.56%     84.03% # Class of executed instruction. (Count)
system.cpu3.exec_context.thread_0.statExecutedInstType::FloatMemRead       341523     12.17%     96.20% # Class of executed instruction. (Count)
system.cpu3.exec_context.thread_0.statExecutedInstType::FloatMemWrite       106516      3.80%    100.00% # Class of executed instruction. (Count)
system.cpu3.exec_context.thread_0.statExecutedInstType::IprAccess            0      0.00%    100.00% # Class of executed instruction. (Count)
system.cpu3.exec_context.thread_0.statExecutedInstType::InstPrefetch            0      0.00%    100.00% # Class of executed instruction. (Count)
system.cpu3.exec_context.thread_0.statExecutedInstType::total      2805794                       # Class of executed instruction. (Count)
system.cpu3.interrupts.clk_domain.clock          5328                       # Clock period in ticks (Tick)
system.cpu3.mmu.dtb.rdAccesses                 549820                       # TLB accesses on read requests (Count)
system.cpu3.mmu.dtb.wrAccesses                 178466                       # TLB accesses on write requests (Count)
system.cpu3.mmu.dtb.rdMisses                      126                       # TLB misses on read requests (Count)
system.cpu3.mmu.dtb.wrMisses                       26                       # TLB misses on write requests (Count)
system.cpu3.mmu.dtb.walker.power_state.pwrStateResidencyTicks::UNDEFINED 5012521113015                       # Cumulative time (in ticks) in various power states (Tick)
system.cpu3.mmu.itb.rdAccesses                      0                       # TLB accesses on read requests (Count)
system.cpu3.mmu.itb.wrAccesses                2672397                       # TLB accesses on write requests (Count)
system.cpu3.mmu.itb.rdMisses                        0                       # TLB misses on read requests (Count)
system.cpu3.mmu.itb.wrMisses                       10                       # TLB misses on write requests (Count)
system.cpu3.mmu.itb.walker.power_state.pwrStateResidencyTicks::UNDEFINED 5012521113015                       # Cumulative time (in ticks) in various power states (Tick)
system.cpu3.power_state.pwrStateResidencyTicks::ON  11374221651                       # Cumulative time (in ticks) in various power states (Tick)
system.cpu3.thread_0.numInsts                       0                       # Number of Instructions committed (Count)
system.cpu3.thread_0.numOps                         0                       # Number of Ops committed (Count)
system.cpu3.thread_0.numMemRefs                     0                       # Number of Memory References (Count)
system.cpu_clk_domain.clock                       333                       # Clock period in ticks (Tick)
system.cpu_voltage_domain.voltage                   1                       # Voltage in Volts (Volt)
system.iobus.transDist::WriteReq                    6                       # Transaction distribution (Count)
system.iobus.transDist::WriteResp                   6                       # Transaction distribution (Count)
system.iobus.pktCount_system.pc.south_bridge.io_apic.int_request::system.ruby.l1_cntrl1.sequencer.pio-response-port            2                       # Packet count per connected requestor and responder (Count)
system.iobus.pktCount_system.pc.south_bridge.io_apic.int_request::total            2                       # Packet count per connected requestor and responder (Count)
system.iobus.pktCount_system.ruby.l1_cntrl0.sequencer.mem-request-port::system.ruby.l1_cntrl0.sequencer.pio-response-port            2                       # Packet count per connected requestor and responder (Count)
system.iobus.pktCount_system.ruby.l1_cntrl0.sequencer.mem-request-port::total            2                       # Packet count per connected requestor and responder (Count)
system.iobus.pktCount_system.ruby.l1_cntrl1.sequencer.mem-request-port::system.ruby.l1_cntrl1.sequencer.pio-response-port            4                       # Packet count per connected requestor and responder (Count)
system.iobus.pktCount_system.ruby.l1_cntrl1.sequencer.mem-request-port::total            4                       # Packet count per connected requestor and responder (Count)
system.iobus.pktCount_system.ruby.l1_cntrl2.sequencer.mem-request-port::system.ruby.l1_cntrl2.sequencer.pio-response-port            2                       # Packet count per connected requestor and responder (Count)
system.iobus.pktCount_system.ruby.l1_cntrl2.sequencer.mem-request-port::total            2                       # Packet count per connected requestor and responder (Count)
system.iobus.pktCount_system.ruby.l1_cntrl3.sequencer.mem-request-port::system.ruby.l1_cntrl3.sequencer.pio-response-port            2                       # Packet count per connected requestor and responder (Count)
system.iobus.pktCount_system.ruby.l1_cntrl3.sequencer.mem-request-port::total            2                       # Packet count per connected requestor and responder (Count)
system.iobus.pktCount::total                       12                       # Packet count per connected requestor and responder (Count)
system.iobus.pktSize_system.pc.south_bridge.io_apic.int_request::system.ruby.l1_cntrl1.sequencer.pio-response-port            4                       # Cumulative packet size per connected requestor and responder (Byte)
system.iobus.pktSize_system.pc.south_bridge.io_apic.int_request::total            4                       # Cumulative packet size per connected requestor and responder (Byte)
system.iobus.pktSize_system.ruby.l1_cntrl0.sequencer.mem-request-port::system.ruby.l1_cntrl0.sequencer.pio-response-port            4                       # Cumulative packet size per connected requestor and responder (Byte)
system.iobus.pktSize_system.ruby.l1_cntrl0.sequencer.mem-request-port::total            4                       # Cumulative packet size per connected requestor and responder (Byte)
system.iobus.pktSize_system.ruby.l1_cntrl1.sequencer.mem-request-port::system.ruby.l1_cntrl1.sequencer.pio-response-port            8                       # Cumulative packet size per connected requestor and responder (Byte)
system.iobus.pktSize_system.ruby.l1_cntrl1.sequencer.mem-request-port::total            8                       # Cumulative packet size per connected requestor and responder (Byte)
system.iobus.pktSize_system.ruby.l1_cntrl2.sequencer.mem-request-port::system.ruby.l1_cntrl2.sequencer.pio-response-port            4                       # Cumulative packet size per connected requestor and responder (Byte)
system.iobus.pktSize_system.ruby.l1_cntrl2.sequencer.mem-request-port::total            4                       # Cumulative packet size per connected requestor and responder (Byte)
system.iobus.pktSize_system.ruby.l1_cntrl3.sequencer.mem-request-port::system.ruby.l1_cntrl3.sequencer.pio-response-port            4                       # Cumulative packet size per connected requestor and responder (Byte)
system.iobus.pktSize_system.ruby.l1_cntrl3.sequencer.mem-request-port::total            4                       # Cumulative packet size per connected requestor and responder (Byte)
system.iobus.pktSize::total                        24                       # Cumulative packet size per connected requestor and responder (Byte)
system.iobus.power_state.pwrStateResidencyTicks::UNDEFINED 5012521113015                       # Cumulative time (in ticks) in various power states (Tick)
system.iobus.reqLayer15.occupancy                2765                       # Layer occupancy (ticks) (Tick)
system.iobus.reqLayer15.utilization               0.0                       # Layer utilization (Ratio)
system.iobus.reqLayer16.occupancy                8185                       # Layer occupancy (ticks) (Tick)
system.iobus.reqLayer16.utilization               0.0                       # Layer utilization (Ratio)
system.iobus.reqLayer17.occupancy                2232                       # Layer occupancy (ticks) (Tick)
system.iobus.reqLayer17.utilization               0.0                       # Layer utilization (Ratio)
system.iobus.reqLayer18.occupancy                2965                       # Layer occupancy (ticks) (Tick)
system.iobus.reqLayer18.utilization               0.0                       # Layer utilization (Ratio)
system.iobus.respLayer0.occupancy                1768                       # Layer occupancy (ticks) (Tick)
system.iobus.respLayer0.utilization               0.0                       # Layer utilization (Ratio)
system.iobus.respLayer3.occupancy                1500                       # Layer occupancy (ticks) (Tick)
system.iobus.respLayer3.utilization               0.0                       # Layer utilization (Ratio)
system.iobus.respLayer5.occupancy                3000                       # Layer occupancy (ticks) (Tick)
system.iobus.respLayer5.utilization               0.0                       # Layer utilization (Ratio)
system.iobus.respLayer7.occupancy                1500                       # Layer occupancy (ticks) (Tick)
system.iobus.respLayer7.utilization               0.0                       # Layer utilization (Ratio)
system.iobus.respLayer9.occupancy                1500                       # Layer occupancy (ticks) (Tick)
system.iobus.respLayer9.utilization               0.0                       # Layer utilization (Ratio)
system.mem_ctrls0.avgPriority_ruby.dir_cntrl0::samples      2605.00                       # Average QoS priority value for accepted requests (Count)
system.mem_ctrls0.priorityMinLatency     0.000000018750                       # per QoS priority minimum request to response latency (Second)
system.mem_ctrls0.priorityMaxLatency     0.000000595500                       # per QoS priority maximum request to response latency (Second)
system.mem_ctrls0.numReadWriteTurnArounds            0                       # Number of turnarounds from READ to WRITE (Count)
system.mem_ctrls0.numWriteReadTurnArounds            0                       # Number of turnarounds from WRITE to READ (Count)
system.mem_ctrls0.numStayReadState               5968                       # Number of times bus staying in READ state (Count)
system.mem_ctrls0.numStayWriteState                 0                       # Number of times bus staying in WRITE state (Count)
system.mem_ctrls0.readReqs                       2604                       # Number of read requests accepted (Count)
system.mem_ctrls0.writeReqs                         1                       # Number of write requests accepted (Count)
system.mem_ctrls0.readBursts                     2604                       # Number of controller read bursts, including those serviced by the write queue (Count)
system.mem_ctrls0.writeBursts                       1                       # Number of controller write bursts, including those merged in the write queue (Count)
system.mem_ctrls0.servicedByWrQ                     0                       # Number of controller read bursts serviced by the write queue (Count)
system.mem_ctrls0.mergedWrBursts                    0                       # Number of controller write bursts merged with an existing one (Count)
system.mem_ctrls0.neitherReadNorWriteReqs            0                       # Number of requests that are neither read nor write (Count)
system.mem_ctrls0.avgRdQLen                      1.02                       # Average read queue length when enqueuing ((Count/Tick))
system.mem_ctrls0.avgWrQLen                      0.15                       # Average write queue length when enqueuing ((Count/Tick))
system.mem_ctrls0.numRdRetry                        0                       # Number of times read queue was full causing retry (Count)
system.mem_ctrls0.numWrRetry                        0                       # Number of times write queue was full causing retry (Count)
system.mem_ctrls0.readPktSize::0                    0                       # Read request sizes (log2) (Count)
system.mem_ctrls0.readPktSize::1                    0                       # Read request sizes (log2) (Count)
system.mem_ctrls0.readPktSize::2                    0                       # Read request sizes (log2) (Count)
system.mem_ctrls0.readPktSize::3                    0                       # Read request sizes (log2) (Count)
system.mem_ctrls0.readPktSize::4                    0                       # Read request sizes (log2) (Count)
system.mem_ctrls0.readPktSize::5                    0                       # Read request sizes (log2) (Count)
system.mem_ctrls0.readPktSize::6                 2604                       # Read request sizes (log2) (Count)
system.mem_ctrls0.writePktSize::0                   0                       # Write request sizes (log2) (Count)
system.mem_ctrls0.writePktSize::1                   0                       # Write request sizes (log2) (Count)
system.mem_ctrls0.writePktSize::2                   0                       # Write request sizes (log2) (Count)
system.mem_ctrls0.writePktSize::3                   0                       # Write request sizes (log2) (Count)
system.mem_ctrls0.writePktSize::4                   0                       # Write request sizes (log2) (Count)
system.mem_ctrls0.writePktSize::5                   0                       # Write request sizes (log2) (Count)
system.mem_ctrls0.writePktSize::6                   1                       # Write request sizes (log2) (Count)
system.mem_ctrls0.rdQLenPdf::0                   2352                       # What read queue length does an incoming req see (Count)
system.mem_ctrls0.rdQLenPdf::1                    237                       # What read queue length does an incoming req see (Count)
system.mem_ctrls0.rdQLenPdf::2                     15                       # What read queue length does an incoming req see (Count)
system.mem_ctrls0.rdQLenPdf::3                      0                       # What read queue length does an incoming req see (Count)
system.mem_ctrls0.rdQLenPdf::4                      0                       # What read queue length does an incoming req see (Count)
system.mem_ctrls0.rdQLenPdf::5                      0                       # What read queue length does an incoming req see (Count)
system.mem_ctrls0.rdQLenPdf::6                      0                       # What read queue length does an incoming req see (Count)
system.mem_ctrls0.rdQLenPdf::7                      0                       # What read queue length does an incoming req see (Count)
system.mem_ctrls0.rdQLenPdf::8                      0                       # What read queue length does an incoming req see (Count)
system.mem_ctrls0.rdQLenPdf::9                      0                       # What read queue length does an incoming req see (Count)
system.mem_ctrls0.rdQLenPdf::10                     0                       # What read queue length does an incoming req see (Count)
system.mem_ctrls0.rdQLenPdf::11                     0                       # What read queue length does an incoming req see (Count)
system.mem_ctrls0.rdQLenPdf::12                     0                       # What read queue length does an incoming req see (Count)
system.mem_ctrls0.rdQLenPdf::13                     0                       # What read queue length does an incoming req see (Count)
system.mem_ctrls0.rdQLenPdf::14                     0                       # What read queue length does an incoming req see (Count)
system.mem_ctrls0.rdQLenPdf::15                     0                       # What read queue length does an incoming req see (Count)
system.mem_ctrls0.rdQLenPdf::16                     0                       # What read queue length does an incoming req see (Count)
system.mem_ctrls0.rdQLenPdf::17                     0                       # What read queue length does an incoming req see (Count)
system.mem_ctrls0.rdQLenPdf::18                     0                       # What read queue length does an incoming req see (Count)
system.mem_ctrls0.rdQLenPdf::19                     0                       # What read queue length does an incoming req see (Count)
system.mem_ctrls0.rdQLenPdf::20                     0                       # What read queue length does an incoming req see (Count)
system.mem_ctrls0.rdQLenPdf::21                     0                       # What read queue length does an incoming req see (Count)
system.mem_ctrls0.rdQLenPdf::22                     0                       # What read queue length does an incoming req see (Count)
system.mem_ctrls0.rdQLenPdf::23                     0                       # What read queue length does an incoming req see (Count)
system.mem_ctrls0.rdQLenPdf::24                     0                       # What read queue length does an incoming req see (Count)
system.mem_ctrls0.rdQLenPdf::25                     0                       # What read queue length does an incoming req see (Count)
system.mem_ctrls0.rdQLenPdf::26                     0                       # What read queue length does an incoming req see (Count)
system.mem_ctrls0.rdQLenPdf::27                     0                       # What read queue length does an incoming req see (Count)
system.mem_ctrls0.rdQLenPdf::28                     0                       # What read queue length does an incoming req see (Count)
system.mem_ctrls0.rdQLenPdf::29                     0                       # What read queue length does an incoming req see (Count)
system.mem_ctrls0.rdQLenPdf::30                     0                       # What read queue length does an incoming req see (Count)
system.mem_ctrls0.rdQLenPdf::31                     0                       # What read queue length does an incoming req see (Count)
system.mem_ctrls0.wrQLenPdf::0                      1                       # What write queue length does an incoming req see (Count)
system.mem_ctrls0.wrQLenPdf::1                      0                       # What write queue length does an incoming req see (Count)
system.mem_ctrls0.wrQLenPdf::2                      0                       # What write queue length does an incoming req see (Count)
system.mem_ctrls0.wrQLenPdf::3                      0                       # What write queue length does an incoming req see (Count)
system.mem_ctrls0.wrQLenPdf::4                      0                       # What write queue length does an incoming req see (Count)
system.mem_ctrls0.wrQLenPdf::5                      0                       # What write queue length does an incoming req see (Count)
system.mem_ctrls0.wrQLenPdf::6                      0                       # What write queue length does an incoming req see (Count)
system.mem_ctrls0.wrQLenPdf::7                      0                       # What write queue length does an incoming req see (Count)
system.mem_ctrls0.wrQLenPdf::8                      0                       # What write queue length does an incoming req see (Count)
system.mem_ctrls0.wrQLenPdf::9                      0                       # What write queue length does an incoming req see (Count)
system.mem_ctrls0.wrQLenPdf::10                     0                       # What write queue length does an incoming req see (Count)
system.mem_ctrls0.wrQLenPdf::11                     0                       # What write queue length does an incoming req see (Count)
system.mem_ctrls0.wrQLenPdf::12                     0                       # What write queue length does an incoming req see (Count)
system.mem_ctrls0.wrQLenPdf::13                     0                       # What write queue length does an incoming req see (Count)
system.mem_ctrls0.wrQLenPdf::14                     0                       # What write queue length does an incoming req see (Count)
system.mem_ctrls0.wrQLenPdf::15                     0                       # What write queue length does an incoming req see (Count)
system.mem_ctrls0.wrQLenPdf::16                     0                       # What write queue length does an incoming req see (Count)
system.mem_ctrls0.wrQLenPdf::17                     0                       # What write queue length does an incoming req see (Count)
system.mem_ctrls0.wrQLenPdf::18                     0                       # What write queue length does an incoming req see (Count)
system.mem_ctrls0.wrQLenPdf::19                     0                       # What write queue length does an incoming req see (Count)
system.mem_ctrls0.wrQLenPdf::20                     0                       # What write queue length does an incoming req see (Count)
system.mem_ctrls0.wrQLenPdf::21                     0                       # What write queue length does an incoming req see (Count)
system.mem_ctrls0.wrQLenPdf::22                     0                       # What write queue length does an incoming req see (Count)
system.mem_ctrls0.wrQLenPdf::23                     0                       # What write queue length does an incoming req see (Count)
system.mem_ctrls0.wrQLenPdf::24                     0                       # What write queue length does an incoming req see (Count)
system.mem_ctrls0.wrQLenPdf::25                     0                       # What write queue length does an incoming req see (Count)
system.mem_ctrls0.wrQLenPdf::26                     0                       # What write queue length does an incoming req see (Count)
system.mem_ctrls0.wrQLenPdf::27                     0                       # What write queue length does an incoming req see (Count)
system.mem_ctrls0.wrQLenPdf::28                     0                       # What write queue length does an incoming req see (Count)
system.mem_ctrls0.wrQLenPdf::29                     0                       # What write queue length does an incoming req see (Count)
system.mem_ctrls0.wrQLenPdf::30                     0                       # What write queue length does an incoming req see (Count)
system.mem_ctrls0.wrQLenPdf::31                     0                       # What write queue length does an incoming req see (Count)
system.mem_ctrls0.wrQLenPdf::32                     0                       # What write queue length does an incoming req see (Count)
system.mem_ctrls0.wrQLenPdf::33                     0                       # What write queue length does an incoming req see (Count)
system.mem_ctrls0.wrQLenPdf::34                     0                       # What write queue length does an incoming req see (Count)
system.mem_ctrls0.wrQLenPdf::35                     0                       # What write queue length does an incoming req see (Count)
system.mem_ctrls0.wrQLenPdf::36                     0                       # What write queue length does an incoming req see (Count)
system.mem_ctrls0.wrQLenPdf::37                     0                       # What write queue length does an incoming req see (Count)
system.mem_ctrls0.wrQLenPdf::38                     0                       # What write queue length does an incoming req see (Count)
system.mem_ctrls0.wrQLenPdf::39                     0                       # What write queue length does an incoming req see (Count)
system.mem_ctrls0.wrQLenPdf::40                     0                       # What write queue length does an incoming req see (Count)
system.mem_ctrls0.wrQLenPdf::41                     0                       # What write queue length does an incoming req see (Count)
system.mem_ctrls0.wrQLenPdf::42                     0                       # What write queue length does an incoming req see (Count)
system.mem_ctrls0.wrQLenPdf::43                     0                       # What write queue length does an incoming req see (Count)
system.mem_ctrls0.wrQLenPdf::44                     0                       # What write queue length does an incoming req see (Count)
system.mem_ctrls0.wrQLenPdf::45                     0                       # What write queue length does an incoming req see (Count)
system.mem_ctrls0.wrQLenPdf::46                     0                       # What write queue length does an incoming req see (Count)
system.mem_ctrls0.wrQLenPdf::47                     0                       # What write queue length does an incoming req see (Count)
system.mem_ctrls0.wrQLenPdf::48                     0                       # What write queue length does an incoming req see (Count)
system.mem_ctrls0.wrQLenPdf::49                     0                       # What write queue length does an incoming req see (Count)
system.mem_ctrls0.wrQLenPdf::50                     0                       # What write queue length does an incoming req see (Count)
system.mem_ctrls0.wrQLenPdf::51                     0                       # What write queue length does an incoming req see (Count)
system.mem_ctrls0.wrQLenPdf::52                     0                       # What write queue length does an incoming req see (Count)
system.mem_ctrls0.wrQLenPdf::53                     0                       # What write queue length does an incoming req see (Count)
system.mem_ctrls0.wrQLenPdf::54                     0                       # What write queue length does an incoming req see (Count)
system.mem_ctrls0.wrQLenPdf::55                     0                       # What write queue length does an incoming req see (Count)
[...]
system.ruby.network.data_traffic_distribution.n3.n7            0                       (Unspecified)
system.ruby.network.data_traffic_distribution.n3.n8            0                       (Unspecified)
system.ruby.network.data_traffic_distribution.n3.n9            0                       (Unspecified)
system.ruby.network.data_traffic_distribution.n4.n0            0                       (Unspecified)
system.ruby.network.data_traffic_distribution.n4.n1            0                       (Unspecified)
system.ruby.network.data_traffic_distribution.n4.n10            0                       (Unspecified)
system.ruby.network.data_traffic_distribution.n4.n11            0                       (Unspecified)
system.ruby.network.data_traffic_distribution.n4.n12            0                       (Unspecified)
system.ruby.network.data_traffic_distribution.n4.n13            0                       (Unspecified)
system.ruby.network.data_traffic_distribution.n4.n14            0                       (Unspecified)
system.ruby.network.data_traffic_distribution.n4.n15            0                       (Unspecified)
system.ruby.network.data_traffic_distribution.n4.n2            0                       (Unspecified)
system.ruby.network.data_traffic_distribution.n4.n3            0                       (Unspecified)
system.ruby.network.data_traffic_distribution.n4.n4            0                       (Unspecified)
system.ruby.network.data_traffic_distribution.n4.n5            0                       (Unspecified)
system.ruby.network.data_traffic_distribution.n4.n6            0                       (Unspecified)
system.ruby.network.data_traffic_distribution.n4.n7            0                       (Unspecified)
system.ruby.network.data_traffic_distribution.n4.n8            0                       (Unspecified)
system.ruby.network.data_traffic_distribution.n4.n9            0                       (Unspecified)
system.ruby.network.data_traffic_distribution.n5.n0            0                       (Unspecified)
system.ruby.network.data_traffic_distribution.n5.n1            0                       (Unspecified)
system.ruby.network.data_traffic_distribution.n5.n10            0                       (Unspecified)
system.ruby.network.data_traffic_distribution.n5.n11            0                       (Unspecified)
system.ruby.network.data_traffic_distribution.n5.n12            0                       (Unspecified)
system.ruby.network.data_traffic_distribution.n5.n13            0                       (Unspecified)
system.ruby.network.data_traffic_distribution.n5.n14            0                       (Unspecified)
system.ruby.network.data_traffic_distribution.n5.n15            0                       (Unspecified)
system.ruby.network.data_traffic_distribution.n5.n2            0                       (Unspecified)
system.ruby.network.data_traffic_distribution.n5.n3            0                       (Unspecified)
system.ruby.network.data_traffic_distribution.n5.n4            0                       (Unspecified)
system.ruby.network.data_traffic_distribution.n5.n5            0                       (Unspecified)
system.ruby.network.data_traffic_distribution.n5.n6            0                       (Unspecified)
system.ruby.network.data_traffic_distribution.n5.n7            0                       (Unspecified)
system.ruby.network.data_traffic_distribution.n5.n8            0                       (Unspecified)
system.ruby.network.data_traffic_distribution.n5.n9            0                       (Unspecified)
system.ruby.network.data_traffic_distribution.n6.n0            0                       (Unspecified)
system.ruby.network.data_traffic_distribution.n6.n1            0                       (Unspecified)
system.ruby.network.data_traffic_distribution.n6.n10            0                       (Unspecified)
system.ruby.network.data_traffic_distribution.n6.n11            0                       (Unspecified)
system.ruby.network.data_traffic_distribution.n6.n12            0                       (Unspecified)
system.ruby.network.data_traffic_distribution.n6.n13            0                       (Unspecified)
system.ruby.network.data_traffic_distribution.n6.n14            0                       (Unspecified)
system.ruby.network.data_traffic_distribution.n6.n15            0                       (Unspecified)
system.ruby.network.data_traffic_distribution.n6.n2            0                       (Unspecified)
system.ruby.network.data_traffic_distribution.n6.n3            0                       (Unspecified)
system.ruby.network.data_traffic_distribution.n6.n4            0                       (Unspecified)
system.ruby.network.data_traffic_distribution.n6.n5            0                       (Unspecified)
system.ruby.network.data_traffic_distribution.n6.n6            0                       (Unspecified)
system.ruby.network.data_traffic_distribution.n6.n7            0                       (Unspecified)
system.ruby.network.data_traffic_distribution.n6.n8            0                       (Unspecified)
system.ruby.network.data_traffic_distribution.n6.n9            0                       (Unspecified)
system.ruby.network.data_traffic_distribution.n7.n0            0                       (Unspecified)
system.ruby.network.data_traffic_distribution.n7.n1            0                       (Unspecified)
system.ruby.network.data_traffic_distribution.n7.n10            0                       (Unspecified)
system.ruby.network.data_traffic_distribution.n7.n11            0                       (Unspecified)
system.ruby.network.data_traffic_distribution.n7.n12            0                       (Unspecified)
system.ruby.network.data_traffic_distribution.n7.n13            0                       (Unspecified)
system.ruby.network.data_traffic_distribution.n7.n14            0                       (Unspecified)
system.ruby.network.data_traffic_distribution.n7.n15            0                       (Unspecified)
system.ruby.network.data_traffic_distribution.n7.n2            0                       (Unspecified)
system.ruby.network.data_traffic_distribution.n7.n3            0                       (Unspecified)
system.ruby.network.data_traffic_distribution.n7.n4            0                       (Unspecified)
system.ruby.network.data_traffic_distribution.n7.n5            0                       (Unspecified)
system.ruby.network.data_traffic_distribution.n7.n6            0                       (Unspecified)
system.ruby.network.data_traffic_distribution.n7.n7            0                       (Unspecified)
system.ruby.network.data_traffic_distribution.n7.n8            0                       (Unspecified)
system.ruby.network.data_traffic_distribution.n7.n9            0                       (Unspecified)
system.ruby.network.data_traffic_distribution.n8.n0            0                       (Unspecified)
system.ruby.network.data_traffic_distribution.n8.n1            0                       (Unspecified)
system.ruby.network.data_traffic_distribution.n8.n10            0                       (Unspecified)
system.ruby.network.data_traffic_distribution.n8.n11            0                       (Unspecified)
system.ruby.network.data_traffic_distribution.n8.n12            0                       (Unspecified)
system.ruby.network.data_traffic_distribution.n8.n13            0                       (Unspecified)
system.ruby.network.data_traffic_distribution.n8.n14            0                       (Unspecified)
system.ruby.network.data_traffic_distribution.n8.n15            0                       (Unspecified)
system.ruby.network.data_traffic_distribution.n8.n2            0                       (Unspecified)
system.ruby.network.data_traffic_distribution.n8.n3            0                       (Unspecified)
system.ruby.network.data_traffic_distribution.n8.n4            0                       (Unspecified)
system.ruby.network.data_traffic_distribution.n8.n5            0                       (Unspecified)
system.ruby.network.data_traffic_distribution.n8.n6            0                       (Unspecified)
system.ruby.network.data_traffic_distribution.n8.n7            0                       (Unspecified)
system.ruby.network.data_traffic_distribution.n8.n8            0                       (Unspecified)
system.ruby.network.data_traffic_distribution.n8.n9            0                       (Unspecified)
system.ruby.network.data_traffic_distribution.n9.n0            0                       (Unspecified)
system.ruby.network.data_traffic_distribution.n9.n1            0                       (Unspecified)
system.ruby.network.data_traffic_distribution.n9.n10            0                       (Unspecified)
system.ruby.network.data_traffic_distribution.n9.n11            0                       (Unspecified)
system.ruby.network.data_traffic_distribution.n9.n12            0                       (Unspecified)
system.ruby.network.data_traffic_distribution.n9.n13            0                       (Unspecified)
system.ruby.network.data_traffic_distribution.n9.n14            0                       (Unspecified)
system.ruby.network.data_traffic_distribution.n9.n15            0                       (Unspecified)
system.ruby.network.data_traffic_distribution.n9.n2            0                       (Unspecified)
system.ruby.network.data_traffic_distribution.n9.n3            0                       (Unspecified)
system.ruby.network.data_traffic_distribution.n9.n4            0                       (Unspecified)
system.ruby.network.data_traffic_distribution.n9.n5            0                       (Unspecified)
system.ruby.network.data_traffic_distribution.n9.n6            0                       (Unspecified)
system.ruby.network.data_traffic_distribution.n9.n7            0                       (Unspecified)
system.ruby.network.data_traffic_distribution.n9.n8            0                       (Unspecified)
system.ruby.network.data_traffic_distribution.n9.n9            0                       (Unspecified)
system.ruby.network.ext_in_link_utilization       825648                       (Unspecified)
system.ruby.network.ext_out_link_utilization       825648                       (Unspecified)
system.ruby.network.flit_network_latency |  1599004000                       |    88771500                       |  2251084000                       (Unspecified)
system.ruby.network.flit_queueing_latency |   116694240                       |     5232000                       |   774553350                       (Unspecified)
system.ruby.network.flits_injected       |      169698     41.11%     41.11% |       10464      2.53%     43.64% |      232662     56.36%    100.00% (Unspecified)
system.ruby.network.flits_injected::total       412824                       (Unspecified)
system.ruby.network.flits_received       |      169698     41.11%     41.11% |       10464      2.53%     43.64% |      232662     56.36%    100.00% (Unspecified)
system.ruby.network.flits_received::total       412824                       (Unspecified)
system.ruby.network.int_link_utilization      1851007                       (Unspecified)
system.ruby.network.packet_network_latency |  1293342000                       |    88726500                       |  1722978500                       (Unspecified)
system.ruby.network.packet_queueing_latency |    97385952                       |     5229500                       |   416184243                       (Unspecified)
system.ruby.network.packets_injected     |      134127     42.36%     42.36% |       10459      3.30%     45.66% |      172044     54.34%    100.00% (Unspecified)
system.ruby.network.packets_injected::total       316630                       (Unspecified)
system.ruby.network.packets_received     |      134127     42.36%     42.36% |       10459      3.30%     45.66% |      172044     54.34%    100.00% (Unspecified)
system.ruby.network.packets_received::total       316630                       (Unspecified)
system.ruby.network.routers00.buffer_reads       395753                       (Unspecified)
system.ruby.network.routers00.buffer_writes       395753                       (Unspecified)
system.ruby.network.routers00.crossbar_activity       197877                       (Unspecified)
system.ruby.network.routers00.sw_input_arbiter_activity       198464                       (Unspecified)
system.ruby.network.routers00.sw_output_arbiter_activity       197877                       (Unspecified)
system.ruby.network.routers01.buffer_reads       112475                       (Unspecified)
system.ruby.network.routers01.buffer_writes       112475                       (Unspecified)
system.ruby.network.routers01.crossbar_activity        56238                       (Unspecified)
system.ruby.network.routers01.sw_input_arbiter_activity        56238                       (Unspecified)
system.ruby.network.routers01.sw_output_arbiter_activity        56238                       (Unspecified)
system.ruby.network.routers02.buffer_reads        89104                       (Unspecified)
system.ruby.network.routers02.buffer_writes        89104                       (Unspecified)
system.ruby.network.routers02.crossbar_activity        44552                       (Unspecified)
system.ruby.network.routers02.sw_input_arbiter_activity        44552                       (Unspecified)
system.ruby.network.routers02.sw_output_arbiter_activity        44552                       (Unspecified)
system.ruby.network.routers03.buffer_reads       131526                       (Unspecified)
system.ruby.network.routers03.buffer_writes       131526                       (Unspecified)
system.ruby.network.routers03.crossbar_activity        65763                       (Unspecified)
system.ruby.network.routers03.sw_input_arbiter_activity        65763                       (Unspecified)
system.ruby.network.routers03.sw_output_arbiter_activity        65763                       (Unspecified)
system.ruby.network.routers04.buffer_reads       112474                       (Unspecified)
system.ruby.network.routers04.buffer_writes       112474                       (Unspecified)
system.ruby.network.routers04.crossbar_activity        56237                       (Unspecified)
system.ruby.network.routers04.sw_input_arbiter_activity        56237                       (Unspecified)
system.ruby.network.routers04.sw_output_arbiter_activity        56237                       (Unspecified)
system.ruby.network.routers05.buffer_reads       373022                       (Unspecified)
system.ruby.network.routers05.buffer_writes       373022                       (Unspecified)
system.ruby.network.routers05.crossbar_activity       186511                       (Unspecified)
system.ruby.network.routers05.sw_input_arbiter_activity       186951                       (Unspecified)
system.ruby.network.routers05.sw_output_arbiter_activity       186511                       (Unspecified)
system.ruby.network.routers06.buffer_reads        87824                       (Unspecified)
system.ruby.network.routers06.buffer_writes        87824                       (Unspecified)
system.ruby.network.routers06.crossbar_activity        43912                       (Unspecified)
system.ruby.network.routers06.sw_input_arbiter_activity        43912                       (Unspecified)
system.ruby.network.routers06.sw_output_arbiter_activity        43912                       (Unspecified)
system.ruby.network.routers07.buffer_reads       117844                       (Unspecified)
system.ruby.network.routers07.buffer_writes       117844                       (Unspecified)
system.ruby.network.routers07.crossbar_activity        58922                       (Unspecified)
system.ruby.network.routers07.sw_input_arbiter_activity        58922                       (Unspecified)
system.ruby.network.routers07.sw_output_arbiter_activity        58922                       (Unspecified)
system.ruby.network.routers08.buffer_reads        89104                       (Unspecified)
system.ruby.network.routers08.buffer_writes        89104                       (Unspecified)
system.ruby.network.routers08.crossbar_activity        44552                       (Unspecified)
system.ruby.network.routers08.sw_input_arbiter_activity        44552                       (Unspecified)
system.ruby.network.routers08.sw_output_arbiter_activity        44552                       (Unspecified)
system.ruby.network.routers09.buffer_reads        87824                       (Unspecified)
system.ruby.network.routers09.buffer_writes        87824                       (Unspecified)
system.ruby.network.routers09.crossbar_activity        43912                       (Unspecified)
system.ruby.network.routers09.sw_input_arbiter_activity        43912                       (Unspecified)
system.ruby.network.routers09.sw_output_arbiter_activity        43912                       (Unspecified)
system.ruby.network.routers10.buffer_reads       278462                       (Unspecified)
system.ruby.network.routers10.buffer_writes       278462                       (Unspecified)
system.ruby.network.routers10.crossbar_activity       139231                       (Unspecified)
system.ruby.network.routers10.sw_input_arbiter_activity       139680                       (Unspecified)
system.ruby.network.routers10.sw_output_arbiter_activity       139231                       (Unspecified)
system.ruby.network.routers11.buffer_reads        78230                       (Unspecified)
system.ruby.network.routers11.buffer_writes        78230                       (Unspecified)
system.ruby.network.routers11.crossbar_activity        39115                       (Unspecified)
system.ruby.network.routers11.sw_input_arbiter_activity        39115                       (Unspecified)
system.ruby.network.routers11.sw_output_arbiter_activity        39115                       (Unspecified)
system.ruby.network.routers12.buffer_reads       131526                       (Unspecified)
system.ruby.network.routers12.buffer_writes       131526                       (Unspecified)
system.ruby.network.routers12.crossbar_activity        65763                       (Unspecified)
system.ruby.network.routers12.sw_input_arbiter_activity        65763                       (Unspecified)
system.ruby.network.routers12.sw_output_arbiter_activity        65763                       (Unspecified)
system.ruby.network.routers13.buffer_reads       117844                       (Unspecified)
system.ruby.network.routers13.buffer_writes       117844                       (Unspecified)
system.ruby.network.routers13.crossbar_activity        58922                       (Unspecified)
system.ruby.network.routers13.sw_input_arbiter_activity        58922                       (Unspecified)
system.ruby.network.routers13.sw_output_arbiter_activity        58922                       (Unspecified)
system.ruby.network.routers14.buffer_reads        78230                       (Unspecified)
system.ruby.network.routers14.buffer_writes        78230                       (Unspecified)
system.ruby.network.routers14.crossbar_activity        39115                       (Unspecified)
system.ruby.network.routers14.sw_input_arbiter_activity        39115                       (Unspecified)
system.ruby.network.routers14.sw_output_arbiter_activity        39115                       (Unspecified)
system.ruby.network.routers15.buffer_reads       395414                       (Unspecified)
system.ruby.network.routers15.buffer_writes       395414                       (Unspecified)
system.ruby.network.routers15.crossbar_activity       197707                       (Unspecified)
system.ruby.network.routers15.sw_input_arbiter_activity       198190                       (Unspecified)
system.ruby.network.routers15.sw_output_arbiter_activity       197707                       (Unspecified)

---------- End Simulation Statistics   ----------
