
---------- Begin Simulation Statistics ----------
simSeconds                                   0.013343                       # Number of seconds simulated (Second)
simTicks                                  13342840470                       # Number of ticks simulated (Tick)
finalTick                                5020460214633                       # Number of ticks from beginning of simulation (restored from checkpoints and never reset) (Tick)
simFreq                                  1000000000000                       # The number of ticks per simulated second ((Tick/Second))
hostSeconds                                    475.92                       # Real time elapsed on the host (Second)
hostTickRate                                 28036143                       # The number of ticks simulated per host second (ticks/s) ((Tick/Second))
hostMemory                                    1135864                       # Number of bytes of host memory used (Byte)
simInsts                                     25267478                       # Number of instructions simulated (Count)
simOps                                       40915963                       # Number of ops (including micro ops) simulated (Count)
hostInstRate                                    53092                       # Simulator instruction rate (inst/s) ((Count/Second))
hostOpRate                                      85973                       # Simulator op (including micro ops) rate (op/s) ((Count/Second))
system.clk_domain.clock                          1000                       # Clock period in ticks (Tick)
system.cpu0.numCycles                        40068590                       # Number of cpu cycles simulated (Cycle)
system.cpu0.numWorkItemsStarted                     0                       # Number of work items this cpu started (Count)
system.cpu0.numWorkItemsCompleted                   0                       # Number of work items this cpu completed (Count)
system.cpu0.exec_context.thread_0.numInsts      6670688                       # Number of instructions committed (Count)
system.cpu0.exec_context.thread_0.numOps     10846348                       # Number of ops (including micro ops) committed (Count)
system.cpu0.exec_context.thread_0.numIntAluAccesses     10712861                       # Number of integer alu accesses (Count)
system.cpu0.exec_context.thread_0.numFpAluAccesses            0                       # Number of float alu accesses (Count)
system.cpu0.exec_context.thread_0.numVecAluAccesses            0                       # Number of vector alu accesses (Count)
system.cpu0.exec_context.thread_0.numCallsReturns         3022                       # Number of times a function call or return occured (Count)
system.cpu0.exec_context.thread_0.numCondCtrlInsts       833420                       # Number of instructions that are conditional controls (Count)
system.cpu0.exec_context.thread_0.numIntInsts     10712861                       # Number of integer instructions (Count)
system.cpu0.exec_context.thread_0.numFpInsts            0                       # Number of float instructions (Count)
system.cpu0.exec_context.thread_0.numVecInsts            0                       # Number of vector instructions (Count)
system.cpu0.exec_context.thread_0.numIntRegReads     14944633                       # Number of times the integer registers were read (Count)
system.cpu0.exec_context.thread_0.numIntRegWrites      8307670                       # Number of times the integer registers were written (Count)
system.cpu0.exec_context.thread_0.numFpRegReads            0                       # Number of times the floating registers were read (Count)
system.cpu0.exec_context.thread_0.numFpRegWrites            0                       # Number of times the floating registers were written (Count)
system.cpu0.exec_context.thread_0.numVecRegReads            0                       # Number of times the vector registers were read (Count)
system.cpu0.exec_context.thread_0.numVecRegWrites            0                       # Number of times the vector registers were written (Count)
system.cpu0.exec_context.thread_0.numVecPredRegReads            0                       # Number of times the predicate registers were read (Count)
system.cpu0.exec_context.thread_0.numVecPredRegWrites            0                       # Number of times the predicate registers were written (Count)
system.cpu0.exec_context.thread_0.numCCRegReads      4689633                       # Number of times the CC registers were read (Count)
system.cpu0.exec_context.thread_0.numCCRegWrites      5433774                       # Number of times the CC registers were written (Count)
system.cpu0.exec_context.thread_0.numMiscRegReads      4497576                       # Number of times the Misc registers were read (Count)
system.cpu0.exec_context.thread_0.numMiscRegWrites          242                       # Number of times the Misc registers were written (Count)
system.cpu0.exec_context.thread_0.numMemRefs      2782479                       # Number of memory refs (Count)
system.cpu0.exec_context.thread_0.numLoadInsts      2070075                       # Number of load instructions (Count)
system.cpu0.exec_context.thread_0.numStoreInsts       712404                       # Number of store instructions (Count)
system.cpu0.exec_context.thread_0.numIdleCycles            0                       # Number of idle cycles (Cycle)
system.cpu0.exec_context.thread_0.numBusyCycles     40068590                       # Number of busy cycles (Cycle)
system.cpu0.exec_context.thread_0.notIdleFraction            1                       # Percentage of non-idle cycles (Ratio)
system.cpu0.exec_context.thread_0.idleFraction            0                       # Percentage of idle cycles (Ratio)
system.cpu0.exec_context.thread_0.numBranches       858124                       # Number of branches fetched (Count)
system.cpu0.exec_context.thread_0.statExecutedInstType::No_OpClass           63      0.00%      0.00% # Class of executed instruction. (Count)
system.cpu0.exec_context.thread_0.statExecutedInstType::IntAlu      8062455     74.33%     74.33% # Class of executed instruction. (Count)
system.cpu0.exec_context.thread_0.statExecutedInstType::IntMult         1267      0.01%     74.35% # Class of executed instruction. (Count)
system.cpu0.exec_context.thread_0.statExecutedInstType::IntDiv           85      0.00%     74.35% # Class of executed instruction. (Count)
system.cpu0.exec_context.thread_0.statExecutedInstType::FloatAdd            0      0.00%     74.35% # Class of executed instruction. (Count)
system.cpu0.exec_context.thread_0.statExecutedInstType::FloatCmp            0      0.00%     74.35% # Class of executed instruction. (Count)
system.cpu0.exec_context.thread_0.statExecutedInstType::FloatCvt            0      0.00%     74.35% # Class of executed instruction. (Count)
system.cpu0.exec_context.thread_0.statExecutedInstType::FloatMult            0      0.00%     74.35% # Class of executed instruction. (Count)
system.cpu0.exec_context.thread_0.statExecutedInstType::FloatMultAcc            0      0.00%     74.35% # Class of executed instruction. (Count)
system.cpu0.exec_context.thread_0.statExecutedInstType::FloatDiv            0      0.00%     74.35% # Class of executed instruction. (Count)
system.cpu0.exec_context.thread_0.statExecutedInstType::FloatMisc            0      0.00%     74.35% # Class of executed instruction. (Count)
system.cpu0.exec_context.thread_0.statExecutedInstType::FloatSqrt            0      0.00%     74.35% # Class of executed instruction. (Count)
system.cpu0.exec_context.thread_0.statExecutedInstType::SimdAdd            0      0.00%     74.35% # Class of executed instruction. (Count)
system.cpu0.exec_context.thread_0.statExecutedInstType::SimdAddAcc            0      0.00%     74.35% # Class of executed instruction. (Count)
system.cpu0.exec_context.thread_0.statExecutedInstType::SimdAlu            0      0.00%     74.35% # Class of executed instruction. (Count)
system.cpu0.exec_context.thread_0.statExecutedInstType::SimdCmp            0      0.00%     74.35% # Class of executed instruction. (Count)
system.cpu0.exec_context.thread_0.statExecutedInstType::SimdCvt            0      0.00%     74.35% # Class of executed instruction. (Count)
system.cpu0.exec_context.thread_0.statExecutedInstType::SimdMisc            0      0.00%     74.35% # Class of executed instruction. (Count)
system.cpu0.exec_context.thread_0.statExecutedInstType::SimdMult            0      0.00%     74.35% # Class of executed instruction. (Count)
system.cpu0.exec_context.thread_0.statExecutedInstType::SimdMultAcc            0      0.00%     74.35% # Class of executed instruction. (Count)
system.cpu0.exec_context.thread_0.statExecutedInstType::SimdShift            0      0.00%     74.35% # Class of executed instruction. (Count)
system.cpu0.exec_context.thread_0.statExecutedInstType::SimdShiftAcc            0      0.00%     74.35% # Class of executed instruction. (Count)
system.cpu0.exec_context.thread_0.statExecutedInstType::SimdDiv            0      0.00%     74.35% # Class of executed instruction. (Count)
system.cpu0.exec_context.thread_0.statExecutedInstType::SimdSqrt            0      0.00%     74.35% # Class of executed instruction. (Count)
system.cpu0.exec_context.thread_0.statExecutedInstType::SimdFloatAdd            0      0.00%     74.35% # Class of executed instruction. (Count)
system.cpu0.exec_context.thread_0.statExecutedInstType::SimdFloatAlu            0      0.00%     74.35% # Class of executed instruction. (Count)
system.cpu0.exec_context.thread_0.statExecutedInstType::SimdFloatCmp            0      0.00%     74.35% # Class of executed instruction. (Count)
system.cpu0.exec_context.thread_0.statExecutedInstType::SimdFloatCvt            0      0.00%     74.35% # Class of executed instruction. (Count)
system.cpu0.exec_context.thread_0.statExecutedInstType::SimdFloatDiv            0      0.00%     74.35% # Class of executed instruction. (Count)
system.cpu0.exec_context.thread_0.statExecutedInstType::SimdFloatMisc            0      0.00%     74.35% # Class of executed instruction. (Count)
system.cpu0.exec_context.thread_0.statExecutedInstType::SimdFloatMult            0      0.00%     74.35% # Class of executed instruction. (Count)
system.cpu0.exec_context.thread_0.statExecutedInstType::SimdFloatMultAcc            0      0.00%     74.35% # Class of executed instruction. (Count)
system.cpu0.exec_context.thread_0.statExecutedInstType::SimdFloatSqrt            0      0.00%     74.35% # Class of executed instruction. (Count)
system.cpu0.exec_context.thread_0.statExecutedInstType::SimdReduceAdd            0      0.00%     74.35% # Class of executed instruction. (Count)
system.cpu0.exec_context.thread_0.statExecutedInstType::SimdReduceAlu            0      0.00%     74.35% # Class of executed instruction. (Count)
system.cpu0.exec_context.thread_0.statExecutedInstType::SimdReduceCmp            0      0.00%     74.35% # Class of executed instruction. (Count)
system.cpu0.exec_context.thread_0.statExecutedInstType::SimdFloatReduceAdd            0      0.00%     74.35% # Class of executed instruction. (Count)
system.cpu0.exec_context.thread_0.statExecutedInstType::SimdFloatReduceCmp            0      0.00%     74.35% # Class of executed instruction. (Count)
system.cpu0.exec_context.thread_0.statExecutedInstType::SimdAes            0      0.00%     74.35% # Class of executed instruction. (Count)
system.cpu0.exec_context.thread_0.statExecutedInstType::SimdAesMix            0      0.00%     74.35% # Class of executed instruction. (Count)
system.cpu0.exec_context.thread_0.statExecutedInstType::SimdSha1Hash            0      0.00%     74.35% # Class of executed instruction. (Count)
system.cpu0.exec_context.thread_0.statExecutedInstType::SimdSha1Hash2            0      0.00%     74.35% # Class of executed instruction. (Count)
system.cpu0.exec_context.thread_0.statExecutedInstType::SimdSha256Hash            0      0.00%     74.35% # Class of executed instruction. (Count)
system.cpu0.exec_context.thread_0.statExecutedInstType::SimdSha256Hash2            0      0.00%     74.35% # Class of executed instruction. (Count)
system.cpu0.exec_context.thread_0.statExecutedInstType::SimdShaSigma2            0      0.00%     74.35% # Class of executed instruction. (Count)
system.cpu0.exec_context.thread_0.statExecutedInstType::SimdShaSigma3            0      0.00%     74.35% # Class of executed instruction. (Count)
system.cpu0.exec_context.thread_0.statExecutedInstType::SimdPredAlu            0      0.00%     74.35% # Class of executed instruction. (Count)
system.cpu0.exec_context.thread_0.statExecutedInstType::MemRead      2070075     19.09%     93.43% # Class of executed instruction. (Count)
system.cpu0.exec_context.thread_0.statExecutedInstType::MemWrite       712404      6.57%    100.00% # Class of executed instruction. (Count)
system.cpu0.exec_context.thread_0.statExecutedInstType::FloatMemRead            0      0.00%    100.00% # Class of executed instruction. (Count)
system.cpu0.exec_context.thread_0.statExecutedInstType::FloatMemWrite            0      0.00%    100.00% # Class of executed instruction. (Count)
system.cpu0.exec_context.thread_0.statExecutedInstType::IprAccess            0      0.00%    100.00% # Class of executed instruction. (Count)
system.cpu0.exec_context.thread_0.statExecutedInstType::InstPrefetch            0      0.00%    100.00% # Class of executed instruction. (Count)
system.cpu0.exec_context.thread_0.statExecutedInstType::total     10846349                       # Class of executed instruction. (Count)
system.cpu0.interrupts.clk_domain.clock          5328                       # Clock period in ticks (Tick)
system.cpu0.mmu.dtb.rdAccesses                2071036                       # TLB accesses on read requests (Count)
system.cpu0.mmu.dtb.wrAccesses                 722336                       # TLB accesses on write requests (Count)
system.cpu0.mmu.dtb.rdMisses                      962                       # TLB misses on read requests (Count)
system.cpu0.mmu.dtb.wrMisses                     9932                       # TLB misses on write requests (Count)
system.cpu0.mmu.dtb.walker.power_state.pwrStateResidencyTicks::UNDEFINED 5020460214633                       # Cumulative time (in ticks) in various power states (Tick)
system.cpu0.mmu.itb.rdAccesses                      0                       # TLB accesses on read requests (Count)
system.cpu0.mmu.itb.wrAccesses                7607018                       # TLB accesses on write requests (Count)
system.cpu0.mmu.itb.rdMisses                        0                       # TLB misses on read requests (Count)
system.cpu0.mmu.itb.wrMisses                        1                       # TLB misses on write requests (Count)
system.cpu0.mmu.itb.walker.power_state.pwrStateResidencyTicks::UNDEFINED 5020460214633                       # Cumulative time (in ticks) in various power states (Tick)
system.cpu0.power_state.pwrStateResidencyTicks::ON  19960983369                       # Cumulative time (in ticks) in various power states (Tick)
system.cpu0.thread_0.numInsts                       0                       # Number of Instructions committed (Count)
system.cpu0.thread_0.numOps                         0                       # Number of Ops committed (Count)
system.cpu0.thread_0.numMemRefs                     0                       # Number of Memory References (Count)
system.cpu1.numCycles                        40068591                       # Number of cpu cycles simulated (Cycle)
system.cpu1.numWorkItemsStarted                     0                       # Number of work items this cpu started (Count)
system.cpu1.numWorkItemsCompleted                   0                       # Number of work items this cpu completed (Count)
system.cpu1.exec_context.thread_0.numInsts      6488638                       # Number of instructions committed (Count)
system.cpu1.exec_context.thread_0.numOps     10527624                       # Number of ops (including micro ops) committed (Count)
system.cpu1.exec_context.thread_0.numIntAluAccesses     10412601                       # Number of integer alu accesses (Count)
system.cpu1.exec_context.thread_0.numFpAluAccesses            0                       # Number of float alu accesses (Count)
system.cpu1.exec_context.thread_0.numVecAluAccesses            0                       # Number of vector alu accesses (Count)
system.cpu1.exec_context.thread_0.numCallsReturns         4322                       # Number of times a function call or return occured (Count)
system.cpu1.exec_context.thread_0.numCondCtrlInsts       785798                       # Number of instructions that are conditional controls (Count)
system.cpu1.exec_context.thread_0.numIntInsts     10412601                       # Number of integer instructions (Count)
system.cpu1.exec_context.thread_0.numFpInsts            0                       # Number of float instructions (Count)
system.cpu1.exec_context.thread_0.numVecInsts            0                       # Number of vector instructions (Count)
system.cpu1.exec_context.thread_0.numIntRegReads     14615562                       # Number of times the integer registers were read (Count)
system.cpu1.exec_context.thread_0.numIntRegWrites      8102761                       # Number of times the integer registers were written (Count)
system.cpu1.exec_context.thread_0.numFpRegReads            0                       # Number of times the floating registers were read (Count)
system.cpu1.exec_context.thread_0.numFpRegWrites            0                       # Number of times the floating registers were written (Count)
system.cpu1.exec_context.thread_0.numVecRegReads            0                       # Number of times the vector registers were read (Count)
system.cpu1.exec_context.thread_0.numVecRegWrites            0                       # Number of times the vector registers were written (Count)
system.cpu1.exec_context.thread_0.numVecPredRegReads            0                       # Number of times the predicate registers were read (Count)
system.cpu1.exec_context.thread_0.numVecPredRegWrites            0                       # Number of times the predicate registers were written (Count)
system.cpu1.exec_context.thread_0.numCCRegReads      4458678                       # Number of times the CC registers were read (Count)
system.cpu1.exec_context.thread_0.numCCRegWrites      5270719                       # Number of times the CC registers were written (Count)
system.cpu1.exec_context.thread_0.numMiscRegReads      4369754                       # Number of times the Misc registers were read (Count)
system.cpu1.exec_context.thread_0.numMiscRegWrites          384                       # Number of times the Misc registers were written (Count)
system.cpu1.exec_context.thread_0.numMemRefs      2752920                       # Number of memory refs (Count)
system.cpu1.exec_context.thread_0.numLoadInsts      2040056                       # Number of load instructions (Count)
system.cpu1.exec_context.thread_0.numStoreInsts       712864                       # Number of store instructions (Count)
system.cpu1.exec_context.thread_0.numIdleCycles            0                       # Number of idle cycles (Cycle)
system.cpu1.exec_context.thread_0.numBusyCycles     40068591                       # Number of busy cycles (Cycle)
system.cpu1.exec_context.thread_0.notIdleFraction            1                       # Percentage of non-idle cycles (Ratio)
system.cpu1.exec_context.thread_0.idleFraction            0                       # Percentage of idle cycles (Ratio)
system.cpu1.exec_context.thread_0.numBranches       809259                       # Number of branches fetched (Count)
system.cpu1.exec_context.thread_0.statExecutedInstType::No_OpClass           70      0.00%      0.00% # Class of executed instruction. (Count)
system.cpu1.exec_context.thread_0.statExecutedInstType::IntAlu      7772713     73.83%     73.83% # Class of executed instruction. (Count)
system.cpu1.exec_context.thread_0.statExecutedInstType::IntMult         1841      0.02%     73.85% # Class of executed instruction. (Count)
system.cpu1.exec_context.thread_0.statExecutedInstType::IntDiv           81      0.00%     73.85% # Class of executed instruction. (Count)
system.cpu1.exec_context.thread_0.statExecutedInstType::FloatAdd            0      0.00%     73.85% # Class of executed instruction. (Count)
system.cpu1.exec_context.thread_0.statExecutedInstType::FloatCmp            0      0.00%     73.85% # Class of executed instruction. (Count)
system.cpu1.exec_context.thread_0.statExecutedInstType::FloatCvt            0      0.00%     73.85% # Class of executed instruction. (Count)
system.cpu1.exec_context.thread_0.statExecutedInstType::FloatMult            0      0.00%     73.85% # Class of executed instruction. (Count)
system.cpu1.exec_context.thread_0.statExecutedInstType::FloatMultAcc            0      0.00%     73.85% # Class of executed instruction. (Count)
system.cpu1.exec_context.thread_0.statExecutedInstType::FloatDiv            0      0.00%     73.85% # Class of executed instruction. (Count)
system.cpu1.exec_context.thread_0.statExecutedInstType::FloatMisc            0      0.00%     73.85% # Class of executed instruction. (Count)
system.cpu1.exec_context.thread_0.statExecutedInstType::FloatSqrt            0      0.00%     73.85% # Class of executed instruction. (Count)
system.cpu1.exec_context.thread_0.statExecutedInstType::SimdAdd            0      0.00%     73.85% # Class of executed instruction. (Count)
system.cpu1.exec_context.thread_0.statExecutedInstType::SimdAddAcc            0      0.00%     73.85% # Class of executed instruction. (Count)
system.cpu1.exec_context.thread_0.statExecutedInstType::SimdAlu            0      0.00%     73.85% # Class of executed instruction. (Count)
system.cpu1.exec_context.thread_0.statExecutedInstType::SimdCmp            0      0.00%     73.85% # Class of executed instruction. (Count)
system.cpu1.exec_context.thread_0.statExecutedInstType::SimdCvt            0      0.00%     73.85% # Class of executed instruction. (Count)
system.cpu1.exec_context.thread_0.statExecutedInstType::SimdMisc            0      0.00%     73.85% # Class of executed instruction. (Count)
system.cpu1.exec_context.thread_0.statExecutedInstType::SimdMult            0      0.00%     73.85% # Class of executed instruction. (Count)
system.cpu1.exec_context.thread_0.statExecutedInstType::SimdMultAcc            0      0.00%     73.85% # Class of executed instruction. (Count)
system.cpu1.exec_context.thread_0.statExecutedInstType::SimdShift            0      0.00%     73.85% # Class of executed instruction. (Count)
system.cpu1.exec_context.thread_0.statExecutedInstType::SimdShiftAcc            0      0.00%     73.85% # Class of executed instruction. (Count)
system.cpu1.exec_context.thread_0.statExecutedInstType::SimdDiv            0      0.00%     73.85% # Class of executed instruction. (Count)
system.cpu1.exec_context.thread_0.statExecutedInstType::SimdSqrt            0      0.00%     73.85% # Class of executed instruction. (Count)
system.cpu1.exec_context.thread_0.statExecutedInstType::SimdFloatAdd            0      0.00%     73.85% # Class of executed instruction. (Count)
system.cpu1.exec_context.thread_0.statExecutedInstType::SimdFloatAlu            0      0.00%     73.85% # Class of executed instruction. (Count)
system.cpu1.exec_context.thread_0.statExecutedInstType::SimdFloatCmp            0      0.00%     73.85% # Class of executed instruction. (Count)
system.cpu1.exec_context.thread_0.statExecutedInstType::SimdFloatCvt            0      0.00%     73.85% # Class of executed instruction. (Count)
system.cpu1.exec_context.thread_0.statExecutedInstType::SimdFloatDiv            0      0.00%     73.85% # Class of executed instruction. (Count)
system.cpu1.exec_context.thread_0.statExecutedInstType::SimdFloatMisc            0      0.00%     73.85% # Class of executed instruction. (Count)
system.cpu1.exec_context.thread_0.statExecutedInstType::SimdFloatMult            0      0.00%     73.85% # Class of executed instruction. (Count)
system.cpu1.exec_context.thread_0.statExecutedInstType::SimdFloatMultAcc            0      0.00%     73.85% # Class of executed instruction. (Count)
system.cpu1.exec_context.thread_0.statExecutedInstType::SimdFloatSqrt            0      0.00%     73.85% # Class of executed instruction. (Count)
system.cpu1.exec_context.thread_0.statExecutedInstType::SimdReduceAdd            0      0.00%     73.85% # Class of executed instruction. (Count)
system.cpu1.exec_context.thread_0.statExecutedInstType::SimdReduceAlu            0      0.00%     73.85% # Class of executed instruction. (Count)
system.cpu1.exec_context.thread_0.statExecutedInstType::SimdReduceCmp            0      0.00%     73.85% # Class of executed instruction. (Count)
system.cpu1.exec_context.thread_0.statExecutedInstType::SimdFloatReduceAdd            0      0.00%     73.85% # Class of executed instruction. (Count)
system.cpu1.exec_context.thread_0.statExecutedInstType::SimdFloatReduceCmp            0      0.00%     73.85% # Class of executed instruction. (Count)
system.cpu1.exec_context.thread_0.statExecutedInstType::SimdAes            0      0.00%     73.85% # Class of executed instruction. (Count)
system.cpu1.exec_context.thread_0.statExecutedInstType::SimdAesMix            0      0.00%     73.85% # Class of executed instruction. (Count)
system.cpu1.exec_context.thread_0.statExecutedInstType::SimdSha1Hash            0      0.00%     73.85% # Class of executed instruction. (Count)
system.cpu1.exec_context.thread_0.statExecutedInstType::SimdSha1Hash2            0      0.00%     73.85% # Class of executed instruction. (Count)
system.cpu1.exec_context.thread_0.statExecutedInstType::SimdSha256Hash            0      0.00%     73.85% # Class of executed instruction. (Count)
system.cpu1.exec_context.thread_0.statExecutedInstType::SimdSha256Hash2            0      0.00%     73.85% # Class of executed instruction. (Count)
system.cpu1.exec_context.thread_0.statExecutedInstType::SimdShaSigma2            0      0.00%     73.85% # Class of executed instruction. (Count)
system.cpu1.exec_context.thread_0.statExecutedInstType::SimdShaSigma3            0      0.00%     73.85% # Class of executed instruction. (Count)
system.cpu1.exec_context.thread_0.statExecutedInstType::SimdPredAlu            0      0.00%     73.85% # Class of executed instruction. (Count)
system.cpu1.exec_context.thread_0.statExecutedInstType::MemRead      2040056     19.38%     93.23% # Class of executed instruction. (Count)
system.cpu1.exec_context.thread_0.statExecutedInstType::MemWrite       712864      6.77%    100.00% # Class of executed instruction. (Count)
system.cpu1.exec_context.thread_0.statExecutedInstType::FloatMemRead            0      0.00%    100.00% # Class of executed instruction. (Count)
system.cpu1.exec_context.thread_0.statExecutedInstType::FloatMemWrite            0      0.00%    100.00% # Class of executed instruction. (Count)
system.cpu1.exec_context.thread_0.statExecutedInstType::IprAccess            0      0.00%    100.00% # Class of executed instruction. (Count)
system.cpu1.exec_context.thread_0.statExecutedInstType::InstPrefetch            0      0.00%    100.00% # Class of executed instruction. (Count)
system.cpu1.exec_context.thread_0.statExecutedInstType::total     10527625                       # Class of executed instruction. (Count)
system.cpu1.interrupts.clk_domain.clock          5328                       # Clock period in ticks (Tick)
system.cpu1.mmu.dtb.rdAccesses                2040907                       # TLB accesses on read requests (Count)
system.cpu1.mmu.dtb.wrAccesses                 722486                       # TLB accesses on write requests (Count)
system.cpu1.mmu.dtb.rdMisses                      852                       # TLB misses on read requests (Count)
system.cpu1.mmu.dtb.wrMisses                     9622                       # TLB misses on write requests (Count)
system.cpu1.mmu.dtb.walker.power_state.pwrStateResidencyTicks::UNDEFINED 5020460214633                       # Cumulative time (in ticks) in various power states (Tick)
system.cpu1.mmu.itb.rdAccesses                      0                       # TLB accesses on read requests (Count)
system.cpu1.mmu.itb.wrAccesses                7409217                       # TLB accesses on write requests (Count)
system.cpu1.mmu.itb.rdMisses                        0                       # TLB misses on read requests (Count)
system.cpu1.mmu.itb.wrMisses                        0                       # TLB misses on write requests (Count)
system.cpu1.mmu.itb.walker.power_state.pwrStateResidencyTicks::UNDEFINED 5020460214633                       # Cumulative time (in ticks) in various power states (Tick)
system.cpu1.power_state.pwrStateResidencyTicks::ON  19962208809                       # Cumulative time (in ticks) in various power states (Tick)
system.cpu1.thread_0.numInsts                       0                       # Number of Instructions committed (Count)
system.cpu1.thread_0.numOps                         0                       # Number of Ops committed (Count)
system.cpu1.thread_0.numMemRefs                     0                       # Number of Memory References (Count)
system.cpu2.numCycles                        40068590                       # Number of cpu cycles simulated (Cycle)
system.cpu2.numWorkItemsStarted                     0                       # Number of work items this cpu started (Count)
system.cpu2.numWorkItemsCompleted                   0                       # Number of work items this cpu completed (Count)
system.cpu2.exec_context.thread_0.numInsts      6330770                       # Number of instructions committed (Count)
system.cpu2.exec_context.thread_0.numOps     10247368                       # Number of ops (including micro ops) committed (Count)
system.cpu2.exec_context.thread_0.numIntAluAccesses     10160718                       # Number of integer alu accesses (Count)
system.cpu2.exec_context.thread_0.numFpAluAccesses            0                       # Number of float alu accesses (Count)
system.cpu2.exec_context.thread_0.numVecAluAccesses            0                       # Number of vector alu accesses (Count)
system.cpu2.exec_context.thread_0.numCallsReturns         3036                       # Number of times a function call or return occured (Count)
system.cpu2.exec_context.thread_0.numCondCtrlInsts       738623                       # Number of instructions that are conditional controls (Count)
system.cpu2.exec_context.thread_0.numIntInsts     10160718                       # Number of integer instructions (Count)
system.cpu2.exec_context.thread_0.numFpInsts            0                       # Number of float instructions (Count)
system.cpu2.exec_context.thread_0.numVecInsts            0                       # Number of vector instructions (Count)
system.cpu2.exec_context.thread_0.numIntRegReads     14389904                       # Number of times the integer registers were read (Count)
system.cpu2.exec_context.thread_0.numIntRegWrites      7946344                       # Number of times the integer registers were written (Count)
system.cpu2.exec_context.thread_0.numFpRegReads            0                       # Number of times the floating registers were read (Count)
system.cpu2.exec_context.thread_0.numFpRegWrites            0                       # Number of times the floating registers were written (Count)
system.cpu2.exec_context.thread_0.numVecRegReads            0                       # Number of times the vector registers were read (Count)
system.cpu2.exec_context.thread_0.numVecRegWrites            0                       # Number of times the vector registers were written (Count)
system.cpu2.exec_context.thread_0.numVecPredRegReads            0                       # Number of times the predicate registers were read (Count)
system.cpu2.exec_context.thread_0.numVecPredRegWrites            0                       # Number of times the predicate registers were written (Count)
system.cpu2.exec_context.thread_0.numCCRegReads      4210642                       # Number of times the CC registers were read (Count)
system.cpu2.exec_context.thread_0.numCCRegWrites      5128911                       # Number of times the CC registers were written (Count)
system.cpu2.exec_context.thread_0.numMiscRegReads      4247330                       # Number of times the Misc registers were read (Count)
system.cpu2.exec_context.thread_0.numMiscRegWrites          439                       # Number of times the Misc registers were written (Count)
system.cpu2.exec_context.thread_0.numMemRefs      2722716                       # Number of memory refs (Count)
system.cpu2.exec_context.thread_0.numLoadInsts      2011094                       # Number of load instructions (Count)
system.cpu2.exec_context.thread_0.numStoreInsts       711622                       # Number of store instructions (Count)
system.cpu2.exec_context.thread_0.numIdleCycles            0                       # Number of idle cycles (Cycle)
system.cpu2.exec_context.thread_0.numBusyCycles     40068590                       # Number of busy cycles (Cycle)
system.cpu2.exec_context.thread_0.notIdleFraction            1                       # Percentage of non-idle cycles (Ratio)
system.cpu2.exec_context.thread_0.idleFraction            0                       # Percentage of idle cycles (Ratio)
system.cpu2.exec_context.thread_0.numBranches       762814                       # Number of branches fetched (Count)
system.cpu2.exec_context.thread_0.statExecutedInstType::No_OpClass           64      0.00%      0.00% # Class of executed instruction. (Count)
system.cpu2.exec_context.thread_0.statExecutedInstType::IntAlu      7523381     73.42%     73.42% # Class of executed instruction. (Count)
system.cpu2.exec_context.thread_0.statExecutedInstType::IntMult         1139      0.01%     73.43% # Class of executed instruction. (Count)
system.cpu2.exec_context.thread_0.statExecutedInstType::IntDiv           70      0.00%     73.43% # Class of executed instruction. (Count)
system.cpu2.exec_context.thread_0.statExecutedInstType::FloatAdd            0      0.00%     73.43% # Class of executed instruction. (Count)
system.cpu2.exec_context.thread_0.statExecutedInstType::FloatCmp            0      0.00%     73.43% # Class of executed instruction. (Count)
system.cpu2.exec_context.thread_0.statExecutedInstType::FloatCvt            0      0.00%     73.43% # Class of executed instruction. (Count)
system.cpu2.exec_context.thread_0.statExecutedInstType::FloatMult            0      0.00%     73.43% # Class of executed instruction. (Count)
system.cpu2.exec_context.thread_0.statExecutedInstType::FloatMultAcc            0      0.00%     73.43% # Class of executed instruction. (Count)
system.cpu2.exec_context.thread_0.statExecutedInstType::FloatDiv            0      0.00%     73.43% # Class of executed instruction. (Count)
system.cpu2.exec_context.thread_0.statExecutedInstType::FloatMisc            0      0.00%     73.43% # Class of executed instruction. (Count)
system.cpu2.exec_context.thread_0.statExecutedInstType::FloatSqrt            0      0.00%     73.43% # Class of executed instruction. (Count)
system.cpu2.exec_context.thread_0.statExecutedInstType::SimdAdd            0      0.00%     73.43% # Class of executed instruction. (Count)
system.cpu2.exec_context.thread_0.statExecutedInstType::SimdAddAcc            0      0.00%     73.43% # Class of executed instruction. (Count)
system.cpu2.exec_context.thread_0.statExecutedInstType::SimdAlu            0      0.00%     73.43% # Class of executed instruction. (Count)
system.cpu2.exec_context.thread_0.statExecutedInstType::SimdCmp            0      0.00%     73.43% # Class of executed instruction. (Count)
system.cpu2.exec_context.thread_0.statExecutedInstType::SimdCvt            0      0.00%     73.43% # Class of executed instruction. (Count)
system.cpu2.exec_context.thread_0.statExecutedInstType::SimdMisc            0      0.00%     73.43% # Class of executed instruction. (Count)
system.cpu2.exec_context.thread_0.statExecutedInstType::SimdMult            0      0.00%     73.43% # Class of executed instruction. (Count)
system.cpu2.exec_context.thread_0.statExecutedInstType::SimdMultAcc            0      0.00%     73.43% # Class of executed instruction. (Count)
system.cpu2.exec_context.thread_0.statExecutedInstType::SimdShift            0      0.00%     73.43% # Class of executed instruction. (Count)
system.cpu2.exec_context.thread_0.statExecutedInstType::SimdShiftAcc            0      0.00%     73.43% # Class of executed instruction. (Count)
system.cpu2.exec_context.thread_0.statExecutedInstType::SimdDiv            0      0.00%     73.43% # Class of executed instruction. (Count)
system.cpu2.exec_context.thread_0.statExecutedInstType::SimdSqrt            0      0.00%     73.43% # Class of executed instruction. (Count)
system.cpu2.exec_context.thread_0.statExecutedInstType::SimdFloatAdd            0      0.00%     73.43% # Class of executed instruction. (Count)
system.cpu2.exec_context.thread_0.statExecutedInstType::SimdFloatAlu            0      0.00%     73.43% # Class of executed instruction. (Count)
system.cpu2.exec_context.thread_0.statExecutedInstType::SimdFloatCmp            0      0.00%     73.43% # Class of executed instruction. (Count)
system.cpu2.exec_context.thread_0.statExecutedInstType::SimdFloatCvt            0      0.00%     73.43% # Class of executed instruction. (Count)
system.cpu2.exec_context.thread_0.statExecutedInstType::SimdFloatDiv            0      0.00%     73.43% # Class of executed instruction. (Count)
system.cpu2.exec_context.thread_0.statExecutedInstType::SimdFloatMisc            0      0.00%     73.43% # Class of executed instruction. (Count)
system.cpu2.exec_context.thread_0.statExecutedInstType::SimdFloatMult            0      0.00%     73.43% # Class of executed instruction. (Count)
system.cpu2.exec_context.thread_0.statExecutedInstType::SimdFloatMultAcc            0      0.00%     73.43% # Class of executed instruction. (Count)
system.cpu2.exec_context.thread_0.statExecutedInstType::SimdFloatSqrt            0      0.00%     73.43% # Class of executed instruction. (Count)
system.cpu2.exec_context.thread_0.statExecutedInstType::SimdReduceAdd            0      0.00%     73.43% # Class of executed instruction. (Count)
system.cpu2.exec_context.thread_0.statExecutedInstType::SimdReduceAlu            0      0.00%     73.43% # Class of executed instruction. (Count)
system.cpu2.exec_context.thread_0.statExecutedInstType::SimdReduceCmp            0      0.00%     73.43% # Class of executed instruction. (Count)
system.cpu2.exec_context.thread_0.statExecutedInstType::SimdFloatReduceAdd            0      0.00%     73.43% # Class of executed instruction. (Count)
system.cpu2.exec_context.thread_0.statExecutedInstType::SimdFloatReduceCmp            0      0.00%     73.43% # Class of executed instruction. (Count)
system.cpu2.exec_context.thread_0.statExecutedInstType::SimdAes            0      0.00%     73.43% # Class of executed instruction. (Count)
system.cpu2.exec_context.thread_0.statExecutedInstType::SimdAesMix            0      0.00%     73.43% # Class of executed instruction. (Count)
system.cpu2.exec_context.thread_0.statExecutedInstType::SimdSha1Hash            0      0.00%     73.43% # Class of executed instruction. (Count)
system.cpu2.exec_context.thread_0.statExecutedInstType::SimdSha1Hash2            0      0.00%     73.43% # Class of executed instruction. (Count)
system.cpu2.exec_context.thread_0.statExecutedInstType::SimdSha256Hash            0      0.00%     73.43% # Class of executed instruction. (Count)
system.cpu2.exec_context.thread_0.statExecutedInstType::SimdSha256Hash2            0      0.00%     73.43% # Class of executed instruction. (Count)
system.cpu2.exec_context.thread_0.statExecutedInstType::SimdShaSigma2            0      0.00%     73.43% # Class of executed instruction. (Count)
system.cpu2.exec_context.thread_0.statExecutedInstType::SimdShaSigma3            0      0.00%     73.43% # Class of executed instruction. (Count)
system.cpu2.exec_context.thread_0.statExecutedInstType::SimdPredAlu            0      0.00%     73.43% # Class of executed instruction. (Count)
system.cpu2.exec_context.thread_0.statExecutedInstType::MemRead      2011094     19.63%     93.06% # Class of executed instruction. (Count)
system.cpu2.exec_context.thread_0.statExecutedInstType::MemWrite       711622      6.94%    100.00% # Class of executed instruction. (Count)
system.cpu2.exec_context.thread_0.statExecutedInstType::FloatMemRead            0      0.00%    100.00% # Class of executed instruction. (Count)
system.cpu2.exec_context.thread_0.statExecutedInstType::FloatMemWrite            0      0.00%    100.00% # Class of executed instruction. (Count)
system.cpu2.exec_context.thread_0.statExecutedInstType::IprAccess            0      0.00%    100.00% # Class of executed instruction. (Count)
system.cpu2.exec_context.thread_0.statExecutedInstType::InstPrefetch            0      0.00%    100.00% # Class of executed instruction. (Count)
system.cpu2.exec_context.thread_0.statExecutedInstType::total     10247370                       # Class of executed instruction. (Count)
system.cpu2.interrupts.clk_domain.clock          5328                       # Clock period in ticks (Tick)
system.cpu2.mmu.dtb.rdAccesses                2012164                       # TLB accesses on read requests (Count)
system.cpu2.mmu.dtb.wrAccesses                 722062                       # TLB accesses on write requests (Count)
system.cpu2.mmu.dtb.rdMisses                     1072                       # TLB misses on read requests (Count)
system.cpu2.mmu.dtb.wrMisses                    10440                       # TLB misses on write requests (Count)
system.cpu2.mmu.dtb.walker.power_state.pwrStateResidencyTicks::UNDEFINED 5020460214633                       # Cumulative time (in ticks) in various power states (Tick)
system.cpu2.mmu.itb.rdAccesses                      0                       # TLB accesses on read requests (Count)
system.cpu2.mmu.itb.wrAccesses                7217092                       # TLB accesses on write requests (Count)
system.cpu2.mmu.itb.rdMisses                        0                       # TLB misses on read requests (Count)
system.cpu2.mmu.itb.wrMisses                        1                       # TLB misses on write requests (Count)
system.cpu2.mmu.itb.walker.power_state.pwrStateResidencyTicks::UNDEFINED 5020460214633                       # Cumulative time (in ticks) in various power states (Tick)
system.cpu2.power_state.pwrStateResidencyTicks::ON  21550302120                       # Cumulative time (in ticks) in various power states (Tick)
system.cpu2.thread_0.numInsts                       0                       # Number of Instructions committed (Count)
system.cpu2.thread_0.numOps                         0                       # Number of Ops committed (Count)
system.cpu2.thread_0.numMemRefs                     0                       # Number of Memory References (Count)
system.cpu3.numCycles                        40068590                       # Number of cpu cycles simulated (Cycle)
system.cpu3.numWorkItemsStarted                     0                       # Number of work items this cpu started (Count)
system.cpu3.numWorkItemsCompleted                   0                       # Number of work items this cpu completed (Count)
system.cpu3.exec_context.thread_0.numInsts      5776543                       # Number of instructions committed (Count)
system.cpu3.exec_context.thread_0.numOps      9293181                       # Number of ops (including micro ops) committed (Count)
system.cpu3.exec_context.thread_0.numIntAluAccesses      9285106                       # Number of integer alu accesses (Count)
system.cpu3.exec_context.thread_0.numFpAluAccesses            0                       # Number of float alu accesses (Count)
system.cpu3.exec_context.thread_0.numVecAluAccesses            0                       # Number of vector alu accesses (Count)
system.cpu3.exec_context.thread_0.numCallsReturns         3204                       # Number of times a function call or return occured (Count)
system.cpu3.exec_context.thread_0.numCondCtrlInsts       584324                       # Number of instructions that are conditional controls (Count)
system.cpu3.exec_context.thread_0.numIntInsts      9285106                       # Number of integer instructions (Count)
system.cpu3.exec_context.thread_0.numFpInsts            0                       # Number of float instructions (Count)
system.cpu3.exec_context.thread_0.numVecInsts            0                       # Number of vector instructions (Count)
system.cpu3.exec_context.thread_0.numIntRegReads     13526029                       # Number of times the integer registers were read (Count)
system.cpu3.exec_context.thread_0.numIntRegWrites      7379158                       # Number of times the integer registers were written (Count)
system.cpu3.exec_context.thread_0.numFpRegReads            0                       # Number of times the floating registers were read (Count)
system.cpu3.exec_context.thread_0.numFpRegWrites            0                       # Number of times the floating registers were written (Count)
system.cpu3.exec_context.thread_0.numVecRegReads            0                       # Number of times the vector registers were read (Count)
system.cpu3.exec_context.thread_0.numVecRegWrites            0                       # Number of times the vector registers were written (Count)
system.cpu3.exec_context.thread_0.numVecPredRegReads            0                       # Number of times the predicate registers were read (Count)
system.cpu3.exec_context.thread_0.numVecPredRegWrites            0                       # Number of times the predicate registers were written (Count)
system.cpu3.exec_context.thread_0.numCCRegReads      3437416                       # Number of times the CC registers were read (Count)
system.cpu3.exec_context.thread_0.numCCRegWrites      4659994                       # Number of times the CC registers were written (Count)
system.cpu3.exec_context.thread_0.numMiscRegReads      3860556                       # Number of times the Misc registers were read (Count)
system.cpu3.exec_context.thread_0.numMiscRegWrites          783                       # Number of times the Misc registers were written (Count)
system.cpu3.exec_context.thread_0.numMemRefs      2654553                       # Number of memory refs (Count)
system.cpu3.exec_context.thread_0.numLoadInsts      1937918                       # Number of load instructions (Count)
system.cpu3.exec_context.thread_0.numStoreInsts       716635                       # Number of store instructions (Count)
system.cpu3.exec_context.thread_0.numIdleCycles            0                       # Number of idle cycles (Cycle)
system.cpu3.exec_context.thread_0.numBusyCycles     40068590                       # Number of busy cycles (Cycle)
system.cpu3.exec_context.thread_0.notIdleFraction            1                       # Percentage of non-idle cycles (Ratio)
system.cpu3.exec_context.thread_0.idleFraction            0                       # Percentage of idle cycles (Ratio)
system.cpu3.exec_context.thread_0.numBranches       603430                       # Number of branches fetched (Count)
system.cpu3.exec_context.thread_0.statExecutedInstType::No_OpClass           64      0.00%      0.00% # Class of executed instruction. (Count)
system.cpu3.exec_context.thread_0.statExecutedInstType::IntAlu      6637414     71.42%     71.42% # Class of executed instruction. (Count)
system.cpu3.exec_context.thread_0.statExecutedInstType::IntMult         1081      0.01%     71.43% # Class of executed instruction. (Count)
system.cpu3.exec_context.thread_0.statExecutedInstType::IntDiv           70      0.00%     71.44% # Class of executed instruction. (Count)
system.cpu3.exec_context.thread_0.statExecutedInstType::FloatAdd            0      0.00%     71.44% # Class of executed instruction. (Count)
system.cpu3.exec_context.thread_0.statExecutedInstType::FloatCmp            0      0.00%     71.44% # Class of executed instruction. (Count)
system.cpu3.exec_context.thread_0.statExecutedInstType::FloatCvt            0      0.00%     71.44% # Class of executed instruction. (Count)
system.cpu3.exec_context.thread_0.statExecutedInstType::FloatMult            0      0.00%     71.44% # Class of executed instruction. (Count)
system.cpu3.exec_context.thread_0.statExecutedInstType::FloatMultAcc            0      0.00%     71.44% # Class of executed instruction. (Count)
system.cpu3.exec_context.thread_0.statExecutedInstType::FloatDiv            0      0.00%     71.44% # Class of executed instruction. (Count)
system.cpu3.exec_context.thread_0.statExecutedInstType::FloatMisc            0      0.00%     71.44% # Class of executed instruction. (Count)
system.cpu3.exec_context.thread_0.statExecutedInstType::FloatSqrt            0      0.00%     71.44% # Class of executed instruction. (Count)
system.cpu3.exec_context.thread_0.statExecutedInstType::SimdAdd            0      0.00%     71.44% # Class of executed instruction. (Count)
system.cpu3.exec_context.thread_0.statExecutedInstType::SimdAddAcc            0      0.00%     71.44% # Class of executed instruction. (Count)
system.cpu3.exec_context.thread_0.statExecutedInstType::SimdAlu            0      0.00%     71.44% # Class of executed instruction. (Count)
system.cpu3.exec_context.thread_0.statExecutedInstType::SimdCmp            0      0.00%     71.44% # Class of executed instruction. (Count)
system.cpu3.exec_context.thread_0.statExecutedInstType::SimdCvt            0      0.00%     71.44% # Class of executed instruction. (Count)
system.cpu3.exec_context.thread_0.statExecutedInstType::SimdMisc            0      0.00%     71.44% # Class of executed instruction. (Count)
system.cpu3.exec_context.thread_0.statExecutedInstType::SimdMult            0      0.00%     71.44% # Class of executed instruction. (Count)
system.cpu3.exec_context.thread_0.statExecutedInstType::SimdMultAcc            0      0.00%     71.44% # Class of executed instruction. (Count)
system.cpu3.exec_context.thread_0.statExecutedInstType::SimdShift            0      0.00%     71.44% # Class of executed instruction. (Count)
system.cpu3.exec_context.thread_0.statExecutedInstType::SimdShiftAcc            0      0.00%     71.44% # Class of executed instruction. (Count)
system.cpu3.exec_context.thread_0.statExecutedInstType::SimdDiv            0      0.00%     71.44% # Class of executed instruction. (Count)
system.cpu3.exec_context.thread_0.statExecutedInstType::SimdSqrt            0      0.00%     71.44% # Class of executed instruction. (Count)
system.cpu3.exec_context.thread_0.statExecutedInstType::SimdFloatAdd            0      0.00%     71.44% # Class of executed instruction. (Count)
system.cpu3.exec_context.thread_0.statExecutedInstType::SimdFloatAlu            0      0.00%     71.44% # Class of executed instruction. (Count)
system.cpu3.exec_context.thread_0.statExecutedInstType::SimdFloatCmp            0      0.00%     71.44% # Class of executed instruction. (Count)
system.cpu3.exec_context.thread_0.statExecutedInstType::SimdFloatCvt            0      0.00%     71.44% # Class of executed instruction. (Count)
system.cpu3.exec_context.thread_0.statExecutedInstType::SimdFloatDiv            0      0.00%     71.44% # Class of executed instruction. (Count)
system.cpu3.exec_context.thread_0.statExecutedInstType::SimdFloatMisc            0      0.00%     71.44% # Class of executed instruction. (Count)
system.cpu3.exec_context.thread_0.statExecutedInstType::SimdFloatMult            0      0.00%     71.44% # Class of executed instruction. (Count)
system.cpu3.exec_context.thread_0.statExecutedInstType::SimdFloatMultAcc            0      0.00%     71.44% # Class of executed instruction. (Count)
system.cpu3.exec_context.thread_0.statExecutedInstType::SimdFloatSqrt            0      0.00%     71.44% # Class of executed instruction. (Count)
system.cpu3.exec_context.thread_0.statExecutedInstType::SimdReduceAdd            0      0.00%     71.44% # Class of executed instruction. (Count)
system.cpu3.exec_context.thread_0.statExecutedInstType::SimdReduceAlu            0      0.00%     71.44% # Class of executed instruction. (Count)
system.cpu3.exec_context.thread_0.statExecutedInstType::SimdReduceCmp            0      0.00%     71.44% # Class of executed instruction. (Count)
system.cpu3.exec_context.thread_0.statExecutedInstType::SimdFloatReduceAdd            0      0.00%     71.44% # Class of executed instruction. (Count)
system.cpu3.exec_context.thread_0.statExecutedInstType::SimdFloatReduceCmp            0      0.00%     71.44% # Class of executed instruction. (Count)
system.cpu3.exec_context.thread_0.statExecutedInstType::SimdAes            0      0.00%     71.44% # Class of executed instruction. (Count)
system.cpu3.exec_context.thread_0.statExecutedInstType::SimdAesMix            0      0.00%     71.44% # Class of executed instruction. (Count)
system.cpu3.exec_context.thread_0.statExecutedInstType::SimdSha1Hash            0      0.00%     71.44% # Class of executed instruction. (Count)
system.cpu3.exec_context.thread_0.statExecutedInstType::SimdSha1Hash2            0      0.00%     71.44% # Class of executed instruction. (Count)
system.cpu3.exec_context.thread_0.statExecutedInstType::SimdSha256Hash            0      0.00%     71.44% # Class of executed instruction. (Count)
system.cpu3.exec_context.thread_0.statExecutedInstType::SimdSha256Hash2            0      0.00%     71.44% # Class of executed instruction. (Count)
system.cpu3.exec_context.thread_0.statExecutedInstType::SimdShaSigma2            0      0.00%     71.44% # Class of executed instruction. (Count)
system.cpu3.exec_context.thread_0.statExecutedInstType::SimdShaSigma3            0      0.00%     71.44% # Class of executed instruction. (Count)
system.cpu3.exec_context.thread_0.statExecutedInstType::SimdPredAlu            0      0.00%     71.44% # Class of executed instruction. (Count)
system.cpu3.exec_context.thread_0.statExecutedInstType::MemRead      1937918     20.85%     92.29% # Class of executed instruction. (Count)
system.cpu3.exec_context.thread_0.statExecutedInstType::MemWrite       716635      7.71%    100.00% # Class of executed instruction. (Count)
system.cpu3.exec_context.thread_0.statExecutedInstType::FloatMemRead            0      0.00%    100.00% # Class of executed instruction. (Count)
system.cpu3.exec_context.thread_0.statExecutedInstType::FloatMemWrite            0      0.00%    100.00% # Class of executed instruction. (Count)
system.cpu3.exec_context.thread_0.statExecutedInstType::IprAccess            0      0.00%    100.00% # Class of executed instruction. (Count)
system.cpu3.exec_context.thread_0.statExecutedInstType::InstPrefetch            0      0.00%    100.00% # Class of executed instruction. (Count)
system.cpu3.exec_context.thread_0.statExecutedInstType::total      9293182                       # Class of executed instruction. (Count)
system.cpu3.interrupts.clk_domain.clock          5328                       # Clock period in ticks (Tick)
system.cpu3.mmu.dtb.rdAccesses                1938842                       # TLB accesses on read requests (Count)
system.cpu3.mmu.dtb.wrAccesses                 728992                       # TLB accesses on write requests (Count)
system.cpu3.mmu.dtb.rdMisses                      925                       # TLB misses on read requests (Count)
system.cpu3.mmu.dtb.wrMisses                    12357                       # TLB misses on write requests (Count)
system.cpu3.mmu.dtb.walker.power_state.pwrStateResidencyTicks::UNDEFINED 5020460214633                       # Cumulative time (in ticks) in various power states (Tick)
system.cpu3.mmu.itb.rdAccesses                      0                       # TLB accesses on read requests (Count)
system.cpu3.mmu.itb.wrAccesses                6578766                       # TLB accesses on write requests (Count)
system.cpu3.mmu.itb.rdMisses                        0                       # TLB misses on read requests (Count)
system.cpu3.mmu.itb.wrMisses                        0                       # TLB misses on write requests (Count)
system.cpu3.mmu.itb.walker.power_state.pwrStateResidencyTicks::UNDEFINED 5020460214633                       # Cumulative time (in ticks) in various power states (Tick)
system.cpu3.power_state.pwrStateResidencyTicks::ON  15964658361                       # Cumulative time (in ticks) in various power states (Tick)
system.cpu3.thread_0.numInsts                       0                       # Number of Instructions committed (Count)
system.cpu3.thread_0.numOps                         0                       # Number of Ops committed (Count)
system.cpu3.thread_0.numMemRefs                     0                       # Number of Memory References (Count)
system.cpu_clk_domain.clock                       333                       # Clock period in ticks (Tick)
system.cpu_voltage_domain.voltage                   1                       # Voltage in Volts (Volt)
system.iobus.transDist::WriteReq                   20                       # Transaction distribution (Count)
system.iobus.transDist::WriteResp                  20                       # Transaction distribution (Count)
system.iobus.pktCount_system.pc.south_bridge.io_apic.int_request::system.ruby.l1_cntrl0.sequencer.pio-response-port            2                       # Packet count per connected requestor and responder (Count)
system.iobus.pktCount_system.pc.south_bridge.io_apic.int_request::system.ruby.l1_cntrl1.sequencer.pio-response-port            2                       # Packet count per connected requestor and responder (Count)
system.iobus.pktCount_system.pc.south_bridge.io_apic.int_request::system.ruby.l1_cntrl2.sequencer.pio-response-port            2                       # Packet count per connected requestor and responder (Count)
system.iobus.pktCount_system.pc.south_bridge.io_apic.int_request::system.ruby.l1_cntrl3.sequencer.pio-response-port            2                       # Packet count per connected requestor and responder (Count)
system.iobus.pktCount_system.pc.south_bridge.io_apic.int_request::total            8                       # Packet count per connected requestor and responder (Count)
system.iobus.pktCount_system.ruby.l1_cntrl0.sequencer.mem-request-port::system.ruby.l1_cntrl0.sequencer.pio-response-port            8                       # Packet count per connected requestor and responder (Count)
system.iobus.pktCount_system.ruby.l1_cntrl0.sequencer.mem-request-port::total            8                       # Packet count per connected requestor and responder (Count)
system.iobus.pktCount_system.ruby.l1_cntrl1.sequencer.mem-request-port::system.ruby.l1_cntrl1.sequencer.pio-response-port            8                       # Packet count per connected requestor and responder (Count)
system.iobus.pktCount_system.ruby.l1_cntrl1.sequencer.mem-request-port::total            8                       # Packet count per connected requestor and responder (Count)
system.iobus.pktCount_system.ruby.l1_cntrl2.sequencer.mem-request-port::system.ruby.l1_cntrl2.sequencer.pio-response-port            8                       # Packet count per connected requestor and responder (Count)
system.iobus.pktCount_system.ruby.l1_cntrl2.sequencer.mem-request-port::total            8                       # Packet count per connected requestor and responder (Count)
system.iobus.pktCount_system.ruby.l1_cntrl3.sequencer.mem-request-port::system.ruby.l1_cntrl3.sequencer.pio-response-port            8                       # Packet count per connected requestor and responder (Count)
system.iobus.pktCount_system.ruby.l1_cntrl3.sequencer.mem-request-port::total            8                       # Packet count per connected requestor and responder (Count)
system.iobus.pktCount::total                       40                       # Packet count per connected requestor and responder (Count)
system.iobus.pktSize_system.pc.south_bridge.io_apic.int_request::system.ruby.l1_cntrl0.sequencer.pio-response-port            4                       # Cumulative packet size per connected requestor and responder (Byte)
system.iobus.pktSize_system.pc.south_bridge.io_apic.int_request::system.ruby.l1_cntrl1.sequencer.pio-response-port            4                       # Cumulative packet size per connected requestor and responder (Byte)
system.iobus.pktSize_system.pc.south_bridge.io_apic.int_request::system.ruby.l1_cntrl2.sequencer.pio-response-port            4                       # Cumulative packet size per connected requestor and responder (Byte)
system.iobus.pktSize_system.pc.south_bridge.io_apic.int_request::system.ruby.l1_cntrl3.sequencer.pio-response-port            4                       # Cumulative packet size per connected requestor and responder (Byte)
system.iobus.pktSize_system.pc.south_bridge.io_apic.int_request::total           16                       # Cumulative packet size per connected requestor and responder (Byte)
system.iobus.pktSize_system.ruby.l1_cntrl0.sequencer.mem-request-port::system.ruby.l1_cntrl0.sequencer.pio-response-port           16                       # Cumulative packet size per connected requestor and responder (Byte)
system.iobus.pktSize_system.ruby.l1_cntrl0.sequencer.mem-request-port::total           16                       # Cumulative packet size per connected requestor and responder (Byte)
system.iobus.pktSize_system.ruby.l1_cntrl1.sequencer.mem-request-port::system.ruby.l1_cntrl1.sequencer.pio-response-port           16                       # Cumulative packet size per connected requestor and responder (Byte)
system.iobus.pktSize_system.ruby.l1_cntrl1.sequencer.mem-request-port::total           16                       # Cumulative packet size per connected requestor and responder (Byte)
system.iobus.pktSize_system.ruby.l1_cntrl2.sequencer.mem-request-port::system.ruby.l1_cntrl2.sequencer.pio-response-port           16                       # Cumulative packet size per connected requestor and responder (Byte)
system.iobus.pktSize_system.ruby.l1_cntrl2.sequencer.mem-request-port::total           16                       # Cumulative packet size per connected requestor and responder (Byte)
system.iobus.pktSize_system.ruby.l1_cntrl3.sequencer.mem-request-port::system.ruby.l1_cntrl3.sequencer.pio-response-port           16                       # Cumulative packet size per connected requestor and responder (Byte)
system.iobus.pktSize_system.ruby.l1_cntrl3.sequencer.mem-request-port::total           16                       # Cumulative packet size per connected requestor and responder (Byte)
system.iobus.pktSize::total                        80                       # Cumulative packet size per connected requestor and responder (Byte)
system.iobus.power_state.pwrStateResidencyTicks::UNDEFINED 5020460214633                       # Cumulative time (in ticks) in various power states (Tick)
system.iobus.reqLayer15.occupancy               12424                       # Layer occupancy (ticks) (Tick)
system.iobus.reqLayer15.utilization               0.0                       # Layer utilization (Ratio)
system.iobus.reqLayer16.occupancy               12830                       # Layer occupancy (ticks) (Tick)
system.iobus.reqLayer16.utilization               0.0                       # Layer utilization (Ratio)
system.iobus.reqLayer17.occupancy               12878                       # Layer occupancy (ticks) (Tick)
system.iobus.reqLayer17.utilization               0.0                       # Layer utilization (Ratio)
system.iobus.reqLayer18.occupancy               13132                       # Layer occupancy (ticks) (Tick)
system.iobus.reqLayer18.utilization               0.0                       # Layer utilization (Ratio)
system.iobus.respLayer0.occupancy                6848                       # Layer occupancy (ticks) (Tick)
system.iobus.respLayer0.utilization               0.0                       # Layer utilization (Ratio)
system.iobus.respLayer3.occupancy                6000                       # Layer occupancy (ticks) (Tick)
system.iobus.respLayer3.utilization               0.0                       # Layer utilization (Ratio)
system.iobus.respLayer5.occupancy                6000                       # Layer occupancy (ticks) (Tick)
system.iobus.respLayer5.utilization               0.0                       # Layer utilization (Ratio)
system.iobus.respLayer7.occupancy                6000                       # Layer occupancy (ticks) (Tick)
system.iobus.respLayer7.utilization               0.0                       # Layer utilization (Ratio)
system.iobus.respLayer9.occupancy                6000                       # Layer occupancy (ticks) (Tick)
system.iobus.respLayer9.utilization               0.0                       # Layer utilization (Ratio)
system.mem_ctrls0.avgPriority_ruby.dir_cntrl0::samples      2530.00                       # Average QoS priority value for accepted requests (Count)
system.mem_ctrls0.priorityMinLatency     0.000000018750                       # per QoS priority minimum request to response latency (Second)
system.mem_ctrls0.priorityMaxLatency     0.000000575296                       # per QoS priority maximum request to response latency (Second)
system.mem_ctrls0.numReadWriteTurnArounds            0                       # Number of turnarounds from READ to WRITE (Count)
system.mem_ctrls0.numWriteReadTurnArounds            0                       # Number of turnarounds from WRITE to READ (Count)
system.mem_ctrls0.numStayReadState               8456                       # Number of times bus staying in READ state (Count)
system.mem_ctrls0.numStayWriteState                 0                       # Number of times bus staying in WRITE state (Count)
system.mem_ctrls0.readReqs                       2536                       # Number of read requests accepted (Count)
system.mem_ctrls0.writeReqs                        30                       # Number of write requests accepted (Count)
system.mem_ctrls0.readBursts                     2536                       # Number of controller read bursts, including those serviced by the write queue (Count)
system.mem_ctrls0.writeBursts                      30                       # Number of controller write bursts, including those merged in the write queue (Count)
system.mem_ctrls0.servicedByWrQ                    30                       # Number of controller read bursts serviced by the write queue (Count)
system.mem_ctrls0.mergedWrBursts                    6                       # Number of controller write bursts merged with an existing one (Count)
system.mem_ctrls0.neitherReadNorWriteReqs            0                       # Number of requests that are neither read nor write (Count)
system.mem_ctrls0.avgRdQLen                      1.01                       # Average read queue length when enqueuing ((Count/Tick))
system.mem_ctrls0.avgWrQLen                     14.31                       # Average write queue length when enqueuing ((Count/Tick))
system.mem_ctrls0.numRdRetry                        0                       # Number of times read queue was full causing retry (Count)
system.mem_ctrls0.numWrRetry                        0                       # Number of times write queue was full causing retry (Count)
system.mem_ctrls0.readPktSize::0                    0                       # Read request sizes (log2) (Count)
system.mem_ctrls0.readPktSize::1                    0                       # Read request sizes (log2) (Count)
system.mem_ctrls0.readPktSize::2                    0                       # Read request sizes (log2) (Count)
system.mem_ctrls0.readPktSize::3                    0                       # Read request sizes (log2) (Count)
system.mem_ctrls0.readPktSize::4                    0                       # Read request sizes (log2) (Count)
system.mem_ctrls0.readPktSize::5                    0                       # Read request sizes (log2) (Count)
system.mem_ctrls0.readPktSize::6                 2536                       # Read request sizes (log2) (Count)
system.mem_ctrls0.writePktSize::0                   0                       # Write request sizes (log2) (Count)
system.mem_ctrls0.writePktSize::1                   0                       # Write request sizes (log2) (Count)
system.mem_ctrls0.writePktSize::2                   0                       # Write request sizes (log2) (Count)
system.mem_ctrls0.writePktSize::3                   0                       # Write request sizes (log2) (Count)
system.mem_ctrls0.writePktSize::4                   0                       # Write request sizes (log2) (Count)
system.mem_ctrls0.writePktSize::5                   0                       # Write request sizes (log2) (Count)
system.mem_ctrls0.writePktSize::6                  30                       # Write request sizes (log2) (Count)
system.mem_ctrls0.rdQLenPdf::0                   2226                       # What read queue length does an incoming req see (Count)
system.mem_ctrls0.rdQLenPdf::1                    270                       # What read queue length does an incoming req see (Count)
system.mem_ctrls0.rdQLenPdf::2                     10                       # What read queue length does an incoming req see (Count)
system.mem_ctrls0.rdQLenPdf::3                      0                       # What read queue length does an incoming req see (Count)
system.mem_ctrls0.rdQLenPdf::4                      0                       # What read queue length does an incoming req see (Count)
system.mem_ctrls0.rdQLenPdf::5                      0                       # What read queue length does an incoming req see (Count)
system.mem_ctrls0.rdQLenPdf::6                      0                       # What read queue length does an incoming req see (Count)
system.mem_ctrls0.rdQLenPdf::7                      0                       # What read queue length does an incoming req see (Count)
system.mem_ctrls0.rdQLenPdf::8                      0                       # What read queue length does an incoming req see (Count)
system.mem_ctrls0.rdQLenPdf::9                      0                       # What read queue length does an incoming req see (Count)
system.mem_ctrls0.rdQLenPdf::10                     0                       # What read queue length does an incoming req see (Count)
system.mem_ctrls0.rdQLenPdf::11                     0                       # What read queue length does an incoming req see (Count)
system.mem_ctrls0.rdQLenPdf::12                     0                       # What read queue length does an incoming req see (Count)
system.mem_ctrls0.rdQLenPdf::13                     0                       # What read queue length does an incoming req see (Count)
system.mem_ctrls0.rdQLenPdf::14                     0                       # What read queue length does an incoming req see (Count)
system.mem_ctrls0.rdQLenPdf::15                     0                       # What read queue length does an incoming req see (Count)
system.mem_ctrls0.rdQLenPdf::16                     0                       # What read queue length does an incoming req see (Count)
system.mem_ctrls0.rdQLenPdf::17                     0                       # What read queue length does an incoming req see (Count)
system.mem_ctrls0.rdQLenPdf::18                     0                       # What read queue length does an incoming req see (Count)
system.mem_ctrls0.rdQLenPdf::19                     0                       # What read queue length does an incoming req see (Count)
system.mem_ctrls0.rdQLenPdf::20                     0                       # What read queue length does an incoming req see (Count)
system.mem_ctrls0.rdQLenPdf::21                     0                       # What read queue length does an incoming req see (Count)
system.mem_ctrls0.rdQLenPdf::22                     0                       # What read queue length does an incoming req see (Count)
system.mem_ctrls0.rdQLenPdf::23                     0                       # What read queue length does an incoming req see (Count)
system.mem_ctrls0.rdQLenPdf::24                     0                       # What read queue length does an incoming req see (Count)
system.mem_ctrls0.rdQLenPdf::25                     0                       # What read queue length does an incoming req see (Count)
system.mem_ctrls0.rdQLenPdf::26                     0                       # What read queue length does an incoming req see (Count)
system.mem_ctrls0.rdQLenPdf::27                     0                       # What read queue length does an incoming req see (Count)
system.mem_ctrls0.rdQLenPdf::28                     0                       # What read queue length does an incoming req see (Count)
system.mem_ctrls0.rdQLenPdf::29                     0                       # What read queue length does an incoming req see (Count)
system.mem_ctrls0.rdQLenPdf::30                     0                       # What read queue length does an incoming req see (Count)
system.mem_ctrls0.rdQLenPdf::31                     0                       # What read queue length does an incoming req see (Count)
system.mem_ctrls0.wrQLenPdf::0                      1                       # What write queue length does an incoming req see (Count)
system.mem_ctrls0.wrQLenPdf::1                      1                       # What write queue length does an incoming req see (Count)
system.mem_ctrls0.wrQLenPdf::2                      1                       # What write queue length does an incoming req see (Count)
system.mem_ctrls0.wrQLenPdf::3                      1                       # What write queue length does an incoming req see (Count)
system.mem_ctrls0.wrQLenPdf::4                      1                       # What write queue length does an incoming req see (Count)
system.mem_ctrls0.wrQLenPdf::5                      1                       # What write queue length does an incoming req see (Count)
system.mem_ctrls0.wrQLenPdf::6                      1                       # What write queue length does an incoming req see (Count)
system.mem_ctrls0.wrQLenPdf::7                      1                       # What write queue length does an incoming req see (Count)
system.mem_ctrls0.wrQLenPdf::8                      1                       # What write queue length does an incoming req see (Count)
system.mem_ctrls0.wrQLenPdf::9                      1                       # What write queue length does an incoming req see (Count)
system.mem_ctrls0.wrQLenPdf::10                     1                       # What write queue length does an incoming req see (Count)
system.mem_ctrls0.wrQLenPdf::11                     1                       # What write queue length does an incoming req see (Count)
system.mem_ctrls0.wrQLenPdf::12                     1                       # What write queue length does an incoming req see (Count)
system.mem_ctrls0.wrQLenPdf::13                     1                       # What write queue length does an incoming req see (Count)
system.mem_ctrls0.wrQLenPdf::14                     1                       # What write queue length does an incoming req see (Count)
system.mem_ctrls0.wrQLenPdf::15                     1                       # What write queue length does an incoming req see (Count)
system.mem_ctrls0.wrQLenPdf::16                     1                       # What write queue length does an incoming req see (Count)
system.mem_ctrls0.wrQLenPdf::17                     1                       # What write queue length does an incoming req see (Count)
system.mem_ctrls0.wrQLenPdf::18                     1                       # What write queue length does an incoming req see (Count)
system.mem_ctrls0.wrQLenPdf::19                     1                       # What write queue length does an incoming req see (Count)
system.mem_ctrls0.wrQLenPdf::20                     1                       # What write queue length does an incoming req see (Count)
system.mem_ctrls0.wrQLenPdf::21                     1                       # What write queue length does an incoming req see (Count)
system.mem_ctrls0.wrQLenPdf::22                     1                       # What write queue length does an incoming req see (Count)
system.mem_ctrls0.wrQLenPdf::23                     1                       # What write queue length does an incoming req see (Count)
system.mem_ctrls0.wrQLenPdf::24                     0                       # What write queue length does an incoming req see (Count)
system.mem_ctrls0.wrQLenPdf::25                     0                       # What write queue length does an incoming req see (Count)
system.mem_ctrls0.wrQLenPdf::26                     0                       # What write queue length does an incoming req see (Count)
system.mem_ctrls0.wrQLenPdf::27                     0                       # What write queue length does an incoming req see (Count)
system.mem_ctrls0.wrQLenPdf::28                     0                       # What write queue length does an incoming req see (Count)
system.mem_ctrls0.wrQLenPdf::29                     0                       # What write queue length does an incoming req see (Count)
system.mem_ctrls0.wrQLenPdf::30                     0                       # What write queue length does an incoming req see (Count)
system.mem_ctrls0.wrQLenPdf::31                     0                       # What write queue length does an incoming req see (Count)
system.mem_ctrls0.wrQLenPdf::32                     0                       # What write queue length does an incoming req see (Count)
system.mem_ctrls0.wrQLenPdf::33                     0                       # What write queue length does an incoming req see (Count)
system.mem_ctrls0.wrQLenPdf::34                     0                       # What write queue length does an incoming req see (Count)
system.mem_ctrls0.wrQLenPdf::35                     0                       # What write queue length does an incoming req see (Count)
system.mem_ctrls0.wrQLenPdf::36                     0                       # What write queue length does an incoming req see (Count)
system.mem_ctrls0.wrQLenPdf::37                     0                       # What write queue length does an incoming req see (Count)
system.mem_ctrls0.wrQLenPdf::38                     0                       # What write queue length does an incoming req see (Count)
system.mem_ctrls0.wrQLenPdf::39                     0                       # What write queue length does an incoming req see (Count)
system.mem_ctrls0.wrQLenPdf::40                     0                       # What write queue length does an incoming req see (Count)
system.mem_ctrls0.wrQLenPdf::41                     0                       # What write queue length does an incoming req see (Count)
system.mem_ctrls0.wrQLenPdf::42                     0                       # What write queue length does an incoming req see (Count)
system.mem_ctrls0.wrQLenPdf::43                     0                       # What write queue length does an incoming req see (Count)
system.mem_ctrls0.wrQLenPdf::44                     0                       # What write queue length does an incoming req see (Count)
system.mem_ctrls0.wrQLenPdf::45                     0                       # What write queue length does an incoming req see (Count)
[...]
system.ruby.network.data_traffic_distribution.n3.n7            0                       (Unspecified)
system.ruby.network.data_traffic_distribution.n3.n8            0                       (Unspecified)
system.ruby.network.data_traffic_distribution.n3.n9            0                       (Unspecified)
system.ruby.network.data_traffic_distribution.n4.n0            0                       (Unspecified)
system.ruby.network.data_traffic_distribution.n4.n1            0                       (Unspecified)
system.ruby.network.data_traffic_distribution.n4.n10            0                       (Unspecified)
system.ruby.network.data_traffic_distribution.n4.n11            0                       (Unspecified)
system.ruby.network.data_traffic_distribution.n4.n12            0                       (Unspecified)
system.ruby.network.data_traffic_distribution.n4.n13            0                       (Unspecified)
system.ruby.network.data_traffic_distribution.n4.n14            0                       (Unspecified)
system.ruby.network.data_traffic_distribution.n4.n15            0                       (Unspecified)
system.ruby.network.data_traffic_distribution.n4.n2            0                       (Unspecified)
system.ruby.network.data_traffic_distribution.n4.n3            0                       (Unspecified)
system.ruby.network.data_traffic_distribution.n4.n4            0                       (Unspecified)
system.ruby.network.data_traffic_distribution.n4.n5            0                       (Unspecified)
system.ruby.network.data_traffic_distribution.n4.n6            0                       (Unspecified)
system.ruby.network.data_traffic_distribution.n4.n7            0                       (Unspecified)
system.ruby.network.data_traffic_distribution.n4.n8            0                       (Unspecified)
system.ruby.network.data_traffic_distribution.n4.n9            0                       (Unspecified)
system.ruby.network.data_traffic_distribution.n5.n0            0                       (Unspecified)
system.ruby.network.data_traffic_distribution.n5.n1            0                       (Unspecified)
system.ruby.network.data_traffic_distribution.n5.n10            0                       (Unspecified)
system.ruby.network.data_traffic_distribution.n5.n11            0                       (Unspecified)
system.ruby.network.data_traffic_distribution.n5.n12            0                       (Unspecified)
system.ruby.network.data_traffic_distribution.n5.n13            0                       (Unspecified)
system.ruby.network.data_traffic_distribution.n5.n14            0                       (Unspecified)
system.ruby.network.data_traffic_distribution.n5.n15            0                       (Unspecified)
system.ruby.network.data_traffic_distribution.n5.n2            0                       (Unspecified)
system.ruby.network.data_traffic_distribution.n5.n3            0                       (Unspecified)
system.ruby.network.data_traffic_distribution.n5.n4            0                       (Unspecified)
system.ruby.network.data_traffic_distribution.n5.n5            0                       (Unspecified)
system.ruby.network.data_traffic_distribution.n5.n6            0                       (Unspecified)
system.ruby.network.data_traffic_distribution.n5.n7            0                       (Unspecified)
system.ruby.network.data_traffic_distribution.n5.n8            0                       (Unspecified)
system.ruby.network.data_traffic_distribution.n5.n9            0                       (Unspecified)
system.ruby.network.data_traffic_distribution.n6.n0            0                       (Unspecified)
system.ruby.network.data_traffic_distribution.n6.n1            0                       (Unspecified)
system.ruby.network.data_traffic_distribution.n6.n10            0                       (Unspecified)
system.ruby.network.data_traffic_distribution.n6.n11            0                       (Unspecified)
system.ruby.network.data_traffic_distribution.n6.n12            0                       (Unspecified)
system.ruby.network.data_traffic_distribution.n6.n13            0                       (Unspecified)
system.ruby.network.data_traffic_distribution.n6.n14            0                       (Unspecified)
system.ruby.network.data_traffic_distribution.n6.n15            0                       (Unspecified)
system.ruby.network.data_traffic_distribution.n6.n2            0                       (Unspecified)
system.ruby.network.data_traffic_distribution.n6.n3            0                       (Unspecified)
system.ruby.network.data_traffic_distribution.n6.n4            0                       (Unspecified)
system.ruby.network.data_traffic_distribution.n6.n5            0                       (Unspecified)
system.ruby.network.data_traffic_distribution.n6.n6            0                       (Unspecified)
system.ruby.network.data_traffic_distribution.n6.n7            0                       (Unspecified)
system.ruby.network.data_traffic_distribution.n6.n8            0                       (Unspecified)
system.ruby.network.data_traffic_distribution.n6.n9            0                       (Unspecified)
system.ruby.network.data_traffic_distribution.n7.n0            0                       (Unspecified)
system.ruby.network.data_traffic_distribution.n7.n1            0                       (Unspecified)
system.ruby.network.data_traffic_distribution.n7.n10            0                       (Unspecified)
system.ruby.network.data_traffic_distribution.n7.n11            0                       (Unspecified)
system.ruby.network.data_traffic_distribution.n7.n12            0                       (Unspecified)
system.ruby.network.data_traffic_distribution.n7.n13            0                       (Unspecified)
system.ruby.network.data_traffic_distribution.n7.n14            0                       (Unspecified)
system.ruby.network.data_traffic_distribution.n7.n15            0                       (Unspecified)
system.ruby.network.data_traffic_distribution.n7.n2            0                       (Unspecified)
system.ruby.network.data_traffic_distribution.n7.n3            0                       (Unspecified)
system.ruby.network.data_traffic_distribution.n7.n4            0                       (Unspecified)
system.ruby.network.data_traffic_distribution.n7.n5            0                       (Unspecified)
system.ruby.network.data_traffic_distribution.n7.n6            0                       (Unspecified)
system.ruby.network.data_traffic_distribution.n7.n7            0                       (Unspecified)
system.ruby.network.data_traffic_distribution.n7.n8            0                       (Unspecified)
system.ruby.network.data_traffic_distribution.n7.n9            0                       (Unspecified)
system.ruby.network.data_traffic_distribution.n8.n0            0                       (Unspecified)
system.ruby.network.data_traffic_distribution.n8.n1            0                       (Unspecified)
system.ruby.network.data_traffic_distribution.n8.n10            0                       (Unspecified)
system.ruby.network.data_traffic_distribution.n8.n11            0                       (Unspecified)
system.ruby.network.data_traffic_distribution.n8.n12            0                       (Unspecified)
system.ruby.network.data_traffic_distribution.n8.n13            0                       (Unspecified)
system.ruby.network.data_traffic_distribution.n8.n14            0                       (Unspecified)
system.ruby.network.data_traffic_distribution.n8.n15            0                       (Unspecified)
system.ruby.network.data_traffic_distribution.n8.n2            0                       (Unspecified)
system.ruby.network.data_traffic_distribution.n8.n3            0                       (Unspecified)
system.ruby.network.data_traffic_distribution.n8.n4            0                       (Unspecified)
system.ruby.network.data_traffic_distribution.n8.n5            0                       (Unspecified)
system.ruby.network.data_traffic_distribution.n8.n6            0                       (Unspecified)
system.ruby.network.data_traffic_distribution.n8.n7            0                       (Unspecified)
system.ruby.network.data_traffic_distribution.n8.n8            0                       (Unspecified)
system.ruby.network.data_traffic_distribution.n8.n9            0                       (Unspecified)
system.ruby.network.data_traffic_distribution.n9.n0            0                       (Unspecified)
system.ruby.network.data_traffic_distribution.n9.n1            0                       (Unspecified)
system.ruby.network.data_traffic_distribution.n9.n10            0                       (Unspecified)
system.ruby.network.data_traffic_distribution.n9.n11            0                       (Unspecified)
system.ruby.network.data_traffic_distribution.n9.n12            0                       (Unspecified)
system.ruby.network.data_traffic_distribution.n9.n13            0                       (Unspecified)
system.ruby.network.data_traffic_distribution.n9.n14            0                       (Unspecified)
system.ruby.network.data_traffic_distribution.n9.n15            0                       (Unspecified)
system.ruby.network.data_traffic_distribution.n9.n2            0                       (Unspecified)
system.ruby.network.data_traffic_distribution.n9.n3            0                       (Unspecified)
system.ruby.network.data_traffic_distribution.n9.n4            0                       (Unspecified)
system.ruby.network.data_traffic_distribution.n9.n5            0                       (Unspecified)
system.ruby.network.data_traffic_distribution.n9.n6            0                       (Unspecified)
system.ruby.network.data_traffic_distribution.n9.n7            0                       (Unspecified)
system.ruby.network.data_traffic_distribution.n9.n8            0                       (Unspecified)
system.ruby.network.data_traffic_distribution.n9.n9            0                       (Unspecified)
system.ruby.network.ext_in_link_utilization      7928951                       (Unspecified)
system.ruby.network.ext_out_link_utilization      7928953                       (Unspecified)
system.ruby.network.flit_network_latency | 14757023000                       |    83317000                       | 23556249500                       (Unspecified)
system.ruby.network.flit_queueing_latency |  1069970109                       |     5267500                       |  7520415249                       (Unspecified)
system.ruby.network.flits_injected       |     1593481     40.19%     40.19% |       10535      0.27%     40.46% |     2360464     59.54%    100.00% (Unspecified)
system.ruby.network.flits_injected::total      3964480                       (Unspecified)
system.ruby.network.flits_received       |     1593481     40.19%     40.19% |       10535      0.27%     40.46% |     2360464     59.54%    100.00% (Unspecified)
system.ruby.network.flits_received::total      3964480                       (Unspecified)
system.ruby.network.int_link_utilization     18530787                       (Unspecified)
system.ruby.network.packet_network_latency | 12707779000                       |    82004000                       | 18223370000                       (Unspecified)
system.ruby.network.packet_queueing_latency |   939136244                       |     5192500                       |  4081687167                       (Unspecified)
system.ruby.network.packets_injected     |     1357224     42.94%     42.94% |       10385      0.33%     43.27% |     1793057     56.73%    100.00% (Unspecified)
system.ruby.network.packets_injected::total      3160666                       (Unspecified)
system.ruby.network.packets_received     |     1357224     42.94%     42.94% |       10385      0.33%     43.27% |     1793057     56.73%    100.00% (Unspecified)
system.ruby.network.packets_received::total      3160666                       (Unspecified)
system.ruby.network.routers00.buffer_reads      3705358                       (Unspecified)
system.ruby.network.routers00.buffer_writes      3705358                       (Unspecified)
system.ruby.network.routers00.crossbar_activity      1852679                       (Unspecified)
system.ruby.network.routers00.sw_input_arbiter_activity      1863024                       (Unspecified)
system.ruby.network.routers00.sw_output_arbiter_activity      1852679                       (Unspecified)
system.ruby.network.routers01.buffer_reads       960414                       (Unspecified)
system.ruby.network.routers01.buffer_writes       960414                       (Unspecified)
system.ruby.network.routers01.crossbar_activity       480207                       (Unspecified)
system.ruby.network.routers01.sw_input_arbiter_activity       480207                       (Unspecified)
system.ruby.network.routers01.sw_output_arbiter_activity       480207                       (Unspecified)
system.ruby.network.routers02.buffer_reads      1047356                       (Unspecified)
system.ruby.network.routers02.buffer_writes      1047356                       (Unspecified)
system.ruby.network.routers02.crossbar_activity       523678                       (Unspecified)
system.ruby.network.routers02.sw_input_arbiter_activity       523678                       (Unspecified)
system.ruby.network.routers02.sw_output_arbiter_activity       523678                       (Unspecified)
system.ruby.network.routers03.buffer_reads      1259014                       (Unspecified)
system.ruby.network.routers03.buffer_writes      1259014                       (Unspecified)
system.ruby.network.routers03.crossbar_activity       629507                       (Unspecified)
system.ruby.network.routers03.sw_input_arbiter_activity       629507                       (Unspecified)
system.ruby.network.routers03.sw_output_arbiter_activity       629507                       (Unspecified)
system.ruby.network.routers04.buffer_reads       960414                       (Unspecified)
system.ruby.network.routers04.buffer_writes       960414                       (Unspecified)
system.ruby.network.routers04.crossbar_activity       480207                       (Unspecified)
system.ruby.network.routers04.sw_input_arbiter_activity       480207                       (Unspecified)
system.ruby.network.routers04.sw_output_arbiter_activity       480207                       (Unspecified)
system.ruby.network.routers05.buffer_reads      3360410                       (Unspecified)
system.ruby.network.routers05.buffer_writes      3360410                       (Unspecified)
system.ruby.network.routers05.crossbar_activity      1680208                       (Unspecified)
system.ruby.network.routers05.sw_input_arbiter_activity      1686390                       (Unspecified)
system.ruby.network.routers05.sw_output_arbiter_activity      1680208                       (Unspecified)
system.ruby.network.routers06.buffer_reads       972520                       (Unspecified)
system.ruby.network.routers06.buffer_writes       972520                       (Unspecified)
system.ruby.network.routers06.crossbar_activity       486260                       (Unspecified)
system.ruby.network.routers06.sw_input_arbiter_activity       486260                       (Unspecified)
system.ruby.network.routers06.sw_output_arbiter_activity       486260                       (Unspecified)
system.ruby.network.routers07.buffer_reads       988340                       (Unspecified)
system.ruby.network.routers07.buffer_writes       988340                       (Unspecified)
system.ruby.network.routers07.crossbar_activity       494173                       (Unspecified)
system.ruby.network.routers07.sw_input_arbiter_activity       494173                       (Unspecified)
system.ruby.network.routers07.sw_output_arbiter_activity       494173                       (Unspecified)
system.ruby.network.routers08.buffer_reads      1047356                       (Unspecified)
system.ruby.network.routers08.buffer_writes      1047356                       (Unspecified)
system.ruby.network.routers08.crossbar_activity       523678                       (Unspecified)
system.ruby.network.routers08.sw_input_arbiter_activity       523678                       (Unspecified)
system.ruby.network.routers08.sw_output_arbiter_activity       523678                       (Unspecified)
system.ruby.network.routers09.buffer_reads       972520                       (Unspecified)
system.ruby.network.routers09.buffer_writes       972520                       (Unspecified)
system.ruby.network.routers09.crossbar_activity       486260                       (Unspecified)
system.ruby.network.routers09.sw_input_arbiter_activity       486260                       (Unspecified)
system.ruby.network.routers09.sw_output_arbiter_activity       486260                       (Unspecified)
system.ruby.network.routers10.buffer_reads      3400417                       (Unspecified)
system.ruby.network.routers10.buffer_writes      3400417                       (Unspecified)
system.ruby.network.routers10.crossbar_activity      1700209                       (Unspecified)
system.ruby.network.routers10.sw_input_arbiter_activity      1706422                       (Unspecified)
system.ruby.network.routers10.sw_output_arbiter_activity      1700209                       (Unspecified)
system.ruby.network.routers11.buffer_reads       949285                       (Unspecified)
system.ruby.network.routers11.buffer_writes       949285                       (Unspecified)
system.ruby.network.routers11.crossbar_activity       474643                       (Unspecified)
system.ruby.network.routers11.sw_input_arbiter_activity       474643                       (Unspecified)
system.ruby.network.routers11.sw_output_arbiter_activity       474643                       (Unspecified)
system.ruby.network.routers12.buffer_reads      1259014                       (Unspecified)
system.ruby.network.routers12.buffer_writes      1259014                       (Unspecified)
system.ruby.network.routers12.crossbar_activity       629507                       (Unspecified)
system.ruby.network.routers12.sw_input_arbiter_activity       629507                       (Unspecified)
system.ruby.network.routers12.sw_output_arbiter_activity       629507                       (Unspecified)
system.ruby.network.routers13.buffer_reads       988340                       (Unspecified)
system.ruby.network.routers13.buffer_writes       988340                       (Unspecified)
system.ruby.network.routers13.crossbar_activity       494173                       (Unspecified)
system.ruby.network.routers13.sw_input_arbiter_activity       494173                       (Unspecified)
system.ruby.network.routers13.sw_output_arbiter_activity       494173                       (Unspecified)
system.ruby.network.routers14.buffer_reads       949285                       (Unspecified)
system.ruby.network.routers14.buffer_writes       949285                       (Unspecified)
system.ruby.network.routers14.crossbar_activity       474643                       (Unspecified)
system.ruby.network.routers14.sw_input_arbiter_activity       474643                       (Unspecified)
system.ruby.network.routers14.sw_output_arbiter_activity       474643                       (Unspecified)
system.ruby.network.routers15.buffer_reads      3639697                       (Unspecified)
system.ruby.network.routers15.buffer_writes      3639697                       (Unspecified)
system.ruby.network.routers15.crossbar_activity      1819852                       (Unspecified)
system.ruby.network.routers15.sw_input_arbiter_activity      1826635                       (Unspecified)
system.ruby.network.routers15.sw_output_arbiter_activity      1819852                       (Unspecified)

---------- End Simulation Statistics   ----------
