
---------- Begin Simulation Statistics ----------
simSeconds                                   0.013507                       # Number of seconds simulated (Second)
simTicks                                  13507174638                       # Number of ticks simulated (Tick)
finalTick                                5150287570986                       # Number of ticks from beginning of simulation (restored from checkpoints and never reset) (Tick)
simFreq                                  1000000000000                       # The number of ticks per simulated second ((Tick/Second))
hostSeconds                                    529.51                       # Real time elapsed on the host (Second)
hostTickRate                                 25509048                       # The number of ticks simulated per host second (ticks/s) ((Tick/Second))
hostMemory                                    2997788                       # Number of bytes of host memory used (Byte)
simInsts                                     34108626                       # Number of instructions simulated (Count)
simOps                                       52384729                       # Number of ops (including micro ops) simulated (Count)
hostInstRate                                    64416                       # Simulator instruction rate (inst/s) ((Count/Second))
hostOpRate                                      98931                       # Simulator op (including micro ops) rate (op/s) ((Count/Second))
system.clk_domain.clock                          1000                       # Clock period in ticks (Tick)
system.cpu0.numCycles                        40562085                       # Number of cpu cycles simulated (Cycle)
system.cpu0.numWorkItemsStarted                     0                       # Number of work items this cpu started (Count)
system.cpu0.numWorkItemsCompleted                   0                       # Number of work items this cpu completed (Count)
system.cpu0.exec_context.thread_0.numInsts      8378743                       # Number of instructions committed (Count)
system.cpu0.exec_context.thread_0.numOps     12795444                       # Number of ops (including micro ops) committed (Count)
system.cpu0.exec_context.thread_0.numIntAluAccesses      9955102                       # Number of integer alu accesses (Count)
system.cpu0.exec_context.thread_0.numFpAluAccesses      5466720                       # Number of float alu accesses (Count)
system.cpu0.exec_context.thread_0.numVecAluAccesses            0                       # Number of vector alu accesses (Count)
system.cpu0.exec_context.thread_0.numCallsReturns         2200                       # Number of times a function call or return occured (Count)
system.cpu0.exec_context.thread_0.numCondCtrlInsts       500061                       # Number of instructions that are conditional controls (Count)
system.cpu0.exec_context.thread_0.numIntInsts      9955102                       # Number of integer instructions (Count)
system.cpu0.exec_context.thread_0.numFpInsts      5466720                       # Number of float instructions (Count)
system.cpu0.exec_context.thread_0.numVecInsts            0                       # Number of vector instructions (Count)
system.cpu0.exec_context.thread_0.numIntRegReads     15855339                       # Number of times the integer registers were read (Count)
system.cpu0.exec_context.thread_0.numIntRegWrites      6155237                       # Number of times the integer registers were written (Count)
system.cpu0.exec_context.thread_0.numFpRegReads      6475488                       # Number of times the floating registers were read (Count)
system.cpu0.exec_context.thread_0.numFpRegWrites      5036904                       # Number of times the floating registers were written (Count)
system.cpu0.exec_context.thread_0.numVecRegReads            0                       # Number of times the vector registers were read (Count)
system.cpu0.exec_context.thread_0.numVecRegWrites            0                       # Number of times the vector registers were written (Count)
system.cpu0.exec_context.thread_0.numVecPredRegReads            0                       # Number of times the predicate registers were read (Count)
system.cpu0.exec_context.thread_0.numVecPredRegWrites            0                       # Number of times the predicate registers were written (Count)
system.cpu0.exec_context.thread_0.numCCRegReads      2533018                       # Number of times the CC registers were read (Count)
system.cpu0.exec_context.thread_0.numCCRegWrites      3066122                       # Number of times the CC registers were written (Count)
system.cpu0.exec_context.thread_0.numMiscRegReads      4799162                       # Number of times the Misc registers were read (Count)
system.cpu0.exec_context.thread_0.numMiscRegWrites          729                       # Number of times the Misc registers were written (Count)
system.cpu0.exec_context.thread_0.numMemRefs      3758377                       # Number of memory refs (Count)
system.cpu0.exec_context.thread_0.numLoadInsts      3270164                       # Number of load instructions (Count)
system.cpu0.exec_context.thread_0.numStoreInsts       488213                       # Number of store instructions (Count)
system.cpu0.exec_context.thread_0.numIdleCycles            0                       # Number of idle cycles (Cycle)
system.cpu0.exec_context.thread_0.numBusyCycles     40562085                       # Number of busy cycles (Cycle)
system.cpu0.exec_context.thread_0.notIdleFraction            1                       # Percentage of non-idle cycles (Ratio)
system.cpu0.exec_context.thread_0.idleFraction            0                       # Percentage of idle cycles (Ratio)
system.cpu0.exec_context.thread_0.numBranches       519915                       # Number of branches fetched (Count)
system.cpu0.exec_context.thread_0.statExecutedInstType::No_OpClass          343      0.00%      0.00% # Class of executed instruction. (Count)
system.cpu0.exec_context.thread_0.statExecutedInstType::IntAlu      6304716     49.27%     49.28% # Class of executed instruction. (Count)
system.cpu0.exec_context.thread_0.statExecutedInstType::IntMult        51977      0.41%     49.68% # Class of executed instruction. (Count)
system.cpu0.exec_context.thread_0.statExecutedInstType::IntDiv         1400      0.01%     49.69% # Class of executed instruction. (Count)
system.cpu0.exec_context.thread_0.statExecutedInstType::FloatAdd       707056      5.53%     55.22% # Class of executed instruction. (Count)
system.cpu0.exec_context.thread_0.statExecutedInstType::FloatCmp            0      0.00%     55.22% # Class of executed instruction. (Count)
system.cpu0.exec_context.thread_0.statExecutedInstType::FloatCvt            0      0.00%     55.22% # Class of executed instruction. (Count)
system.cpu0.exec_context.thread_0.statExecutedInstType::FloatMult            0      0.00%     55.22% # Class of executed instruction. (Count)
system.cpu0.exec_context.thread_0.statExecutedInstType::FloatMultAcc            0      0.00%     55.22% # Class of executed instruction. (Count)
system.cpu0.exec_context.thread_0.statExecutedInstType::FloatDiv            0      0.00%     55.22% # Class of executed instruction. (Count)
system.cpu0.exec_context.thread_0.statExecutedInstType::FloatMisc            0      0.00%     55.22% # Class of executed instruction. (Count)
system.cpu0.exec_context.thread_0.statExecutedInstType::FloatSqrt            0      0.00%     55.22% # Class of executed instruction. (Count)
system.cpu0.exec_context.thread_0.statExecutedInstType::SimdAdd            0      0.00%     55.22% # Class of executed instruction. (Count)
system.cpu0.exec_context.thread_0.statExecutedInstType::SimdAddAcc            0      0.00%     55.22% # Class of executed instruction. (Count)
system.cpu0.exec_context.thread_0.statExecutedInstType::SimdAlu            0      0.00%     55.22% # Class of executed instruction. (Count)
system.cpu0.exec_context.thread_0.statExecutedInstType::SimdCmp            0      0.00%     55.22% # Class of executed instruction. (Count)
system.cpu0.exec_context.thread_0.statExecutedInstType::SimdCvt            0      0.00%     55.22% # Class of executed instruction. (Count)
system.cpu0.exec_context.thread_0.statExecutedInstType::SimdMisc            0      0.00%     55.22% # Class of executed instruction. (Count)
system.cpu0.exec_context.thread_0.statExecutedInstType::SimdMult            0      0.00%     55.22% # Class of executed instruction. (Count)
system.cpu0.exec_context.thread_0.statExecutedInstType::SimdMultAcc            0      0.00%     55.22% # Class of executed instruction. (Count)
system.cpu0.exec_context.thread_0.statExecutedInstType::SimdShift            0      0.00%     55.22% # Class of executed instruction. (Count)
system.cpu0.exec_context.thread_0.statExecutedInstType::SimdShiftAcc            0      0.00%     55.22% # Class of executed instruction. (Count)
system.cpu0.exec_context.thread_0.statExecutedInstType::SimdDiv            0      0.00%     55.22% # Class of executed instruction. (Count)
system.cpu0.exec_context.thread_0.statExecutedInstType::SimdSqrt            0      0.00%     55.22% # Class of executed instruction. (Count)
system.cpu0.exec_context.thread_0.statExecutedInstType::SimdFloatAdd      1581728     12.36%     67.58% # Class of executed instruction. (Count)
system.cpu0.exec_context.thread_0.statExecutedInstType::SimdFloatAlu            0      0.00%     67.58% # Class of executed instruction. (Count)
system.cpu0.exec_context.thread_0.statExecutedInstType::SimdFloatCmp            0      0.00%     67.58% # Class of executed instruction. (Count)
system.cpu0.exec_context.thread_0.statExecutedInstType::SimdFloatCvt            0      0.00%     67.58% # Class of executed instruction. (Count)
system.cpu0.exec_context.thread_0.statExecutedInstType::SimdFloatDiv            0      0.00%     67.58% # Class of executed instruction. (Count)
system.cpu0.exec_context.thread_0.statExecutedInstType::SimdFloatMisc            0      0.00%     67.58% # Class of executed instruction. (Count)
system.cpu0.exec_context.thread_0.statExecutedInstType::SimdFloatMult       389848      3.05%     70.63% # Class of executed instruction. (Count)
system.cpu0.exec_context.thread_0.statExecutedInstType::SimdFloatMultAcc            0      0.00%     70.63% # Class of executed instruction. (Count)
system.cpu0.exec_context.thread_0.statExecutedInstType::SimdFloatSqrt            0      0.00%     70.63% # Class of executed instruction. (Count)
system.cpu0.exec_context.thread_0.statExecutedInstType::SimdReduceAdd            0      0.00%     70.63% # Class of executed instruction. (Count)
system.cpu0.exec_context.thread_0.statExecutedInstType::SimdReduceAlu            0      0.00%     70.63% # Class of executed instruction. (Count)
system.cpu0.exec_context.thread_0.statExecutedInstType::SimdReduceCmp            0      0.00%     70.63% # Class of executed instruction. (Count)
system.cpu0.exec_context.thread_0.statExecutedInstType::SimdFloatReduceAdd            0      0.00%     70.63% # Class of executed instruction. (Count)
system.cpu0.exec_context.thread_0.statExecutedInstType::SimdFloatReduceCmp            0      0.00%     70.63% # Class of executed instruction. (Count)
system.cpu0.exec_context.thread_0.statExecutedInstType::SimdAes            0      0.00%     70.63% # Class of executed instruction. (Count)
system.cpu0.exec_context.thread_0.statExecutedInstType::SimdAesMix            0      0.00%     70.63% # Class of executed instruction. (Count)
system.cpu0.exec_context.thread_0.statExecutedInstType::SimdSha1Hash            0      0.00%     70.63% # Class of executed instruction. (Count)
system.cpu0.exec_context.thread_0.statExecutedInstType::SimdSha1Hash2            0      0.00%     70.63% # Class of executed instruction. (Count)
system.cpu0.exec_context.thread_0.statExecutedInstType::SimdSha256Hash            0      0.00%     70.63% # Class of executed instruction. (Count)
system.cpu0.exec_context.thread_0.statExecutedInstType::SimdSha256Hash2            0      0.00%     70.63% # Class of executed instruction. (Count)
system.cpu0.exec_context.thread_0.statExecutedInstType::SimdShaSigma2            0      0.00%     70.63% # Class of executed instruction. (Count)
system.cpu0.exec_context.thread_0.statExecutedInstType::SimdShaSigma3            0      0.00%     70.63% # Class of executed instruction. (Count)
system.cpu0.exec_context.thread_0.statExecutedInstType::SimdPredAlu            0      0.00%     70.63% # Class of executed instruction. (Count)
system.cpu0.exec_context.thread_0.statExecutedInstType::MemRead       977364      7.64%     78.27% # Class of executed instruction. (Count)
system.cpu0.exec_context.thread_0.statExecutedInstType::MemWrite        58397      0.46%     78.72% # Class of executed instruction. (Count)
system.cpu0.exec_context.thread_0.statExecutedInstType::FloatMemRead      2292800     17.92%     96.64% # Class of executed instruction. (Count)
system.cpu0.exec_context.thread_0.statExecutedInstType::FloatMemWrite       429816      3.36%    100.00% # Class of executed instruction. (Count)
system.cpu0.exec_context.thread_0.statExecutedInstType::IprAccess            0      0.00%    100.00% # Class of executed instruction. (Count)
system.cpu0.exec_context.thread_0.statExecutedInstType::InstPrefetch            0      0.00%    100.00% # Class of executed instruction. (Count)
system.cpu0.exec_context.thread_0.statExecutedInstType::total     12795445                       # Class of executed instruction. (Count)
system.cpu0.interrupts.clk_domain.clock          5328                       # Clock period in ticks (Tick)
system.cpu0.mmu.dtb.rdAccesses                3270857                       # TLB accesses on read requests (Count)
system.cpu0.mmu.dtb.wrAccesses                 488462                       # TLB accesses on write requests (Count)
system.cpu0.mmu.dtb.rdMisses                      693                       # TLB misses on read requests (Count)
system.cpu0.mmu.dtb.wrMisses                      249                       # TLB misses on write requests (Count)
system.cpu0.mmu.dtb.walker.power_state.pwrStateResidencyTicks::UNDEFINED 5150287570986                       # Cumulative time (in ticks) in various power states (Tick)
system.cpu0.mmu.itb.rdAccesses                      0                       # TLB accesses on read requests (Count)
system.cpu0.mmu.itb.wrAccesses               11983755                       # TLB accesses on write requests (Count)
system.cpu0.mmu.itb.rdMisses                        0                       # TLB misses on read requests (Count)
system.cpu0.mmu.itb.wrMisses                        0                       # TLB misses on write requests (Count)
system.cpu0.mmu.itb.walker.power_state.pwrStateResidencyTicks::UNDEFINED 5150287570986                       # Cumulative time (in ticks) in various power states (Tick)
system.cpu0.power_state.pwrStateResidencyTicks::ON  20188138986                       # Cumulative time (in ticks) in various power states (Tick)
system.cpu0.thread_0.numInsts                       0                       # Number of Instructions committed (Count)
system.cpu0.thread_0.numOps                         0                       # Number of Ops committed (Count)
system.cpu0.thread_0.numMemRefs                     0                       # Number of Memory References (Count)
system.cpu1.numCycles                        40562086                       # Number of cpu cycles simulated (Cycle)
system.cpu1.numWorkItemsStarted                     0                       # Number of work items this cpu started (Count)
system.cpu1.numWorkItemsCompleted                   0                       # Number of work items this cpu completed (Count)
system.cpu1.exec_context.thread_0.numInsts      8429528                       # Number of instructions committed (Count)
system.cpu1.exec_context.thread_0.numOps     12879401                       # Number of ops (including micro ops) committed (Count)
system.cpu1.exec_context.thread_0.numIntAluAccesses     10054382                       # Number of integer alu accesses (Count)
system.cpu1.exec_context.thread_0.numFpAluAccesses      5476204                       # Number of float alu accesses (Count)
system.cpu1.exec_context.thread_0.numVecAluAccesses            0                       # Number of vector alu accesses (Count)
system.cpu1.exec_context.thread_0.numCallsReturns         9710                       # Number of times a function call or return occured (Count)
system.cpu1.exec_context.thread_0.numCondCtrlInsts       471155                       # Number of instructions that are conditional controls (Count)
system.cpu1.exec_context.thread_0.numIntInsts     10054382                       # Number of integer instructions (Count)
system.cpu1.exec_context.thread_0.numFpInsts      5476204                       # Number of float instructions (Count)
system.cpu1.exec_context.thread_0.numVecInsts            0                       # Number of vector instructions (Count)
system.cpu1.exec_context.thread_0.numIntRegReads     16092236                       # Number of times the integer registers were read (Count)
system.cpu1.exec_context.thread_0.numIntRegWrites      6246298                       # Number of times the integer registers were written (Count)
system.cpu1.exec_context.thread_0.numFpRegReads      6488028                       # Number of times the floating registers were read (Count)
system.cpu1.exec_context.thread_0.numFpRegWrites      5045084                       # Number of times the floating registers were written (Count)
system.cpu1.exec_context.thread_0.numVecRegReads            0                       # Number of times the vector registers were read (Count)
system.cpu1.exec_context.thread_0.numVecRegWrites            0                       # Number of times the vector registers were written (Count)
system.cpu1.exec_context.thread_0.numVecPredRegReads            0                       # Number of times the predicate registers were read (Count)
system.cpu1.exec_context.thread_0.numVecPredRegWrites            0                       # Number of times the predicate registers were written (Count)
system.cpu1.exec_context.thread_0.numCCRegReads      2435961                       # Number of times the CC registers were read (Count)
system.cpu1.exec_context.thread_0.numCCRegWrites      3049631                       # Number of times the CC registers were written (Count)
system.cpu1.exec_context.thread_0.numMiscRegReads      4838307                       # Number of times the Misc registers were read (Count)
system.cpu1.exec_context.thread_0.numMiscRegWrites         5693                       # Number of times the Misc registers were written (Count)
system.cpu1.exec_context.thread_0.numMemRefs      3834303                       # Number of memory refs (Count)
system.cpu1.exec_context.thread_0.numLoadInsts      3297743                       # Number of load instructions (Count)
system.cpu1.exec_context.thread_0.numStoreInsts       536560                       # Number of store instructions (Count)
system.cpu1.exec_context.thread_0.numIdleCycles            0                       # Number of idle cycles (Cycle)
system.cpu1.exec_context.thread_0.numBusyCycles     40562086                       # Number of busy cycles (Cycle)
system.cpu1.exec_context.thread_0.notIdleFraction            1                       # Percentage of non-idle cycles (Ratio)
system.cpu1.exec_context.thread_0.idleFraction            0                       # Percentage of idle cycles (Ratio)
system.cpu1.exec_context.thread_0.numBranches       501400                       # Number of branches fetched (Count)
system.cpu1.exec_context.thread_0.statExecutedInstType::No_OpClass          546      0.00%      0.00% # Class of executed instruction. (Count)
system.cpu1.exec_context.thread_0.statExecutedInstType::IntAlu      6307802     48.98%     48.98% # Class of executed instruction. (Count)
system.cpu1.exec_context.thread_0.statExecutedInstType::IntMult        52500      0.41%     49.39% # Class of executed instruction. (Count)
system.cpu1.exec_context.thread_0.statExecutedInstType::IntDiv         1415      0.01%     49.40% # Class of executed instruction. (Count)
system.cpu1.exec_context.thread_0.statExecutedInstType::FloatAdd       708096      5.50%     54.90% # Class of executed instruction. (Count)
system.cpu1.exec_context.thread_0.statExecutedInstType::FloatCmp            0      0.00%     54.90% # Class of executed instruction. (Count)
system.cpu1.exec_context.thread_0.statExecutedInstType::FloatCvt            0      0.00%     54.90% # Class of executed instruction. (Count)
system.cpu1.exec_context.thread_0.statExecutedInstType::FloatMult            0      0.00%     54.90% # Class of executed instruction. (Count)
system.cpu1.exec_context.thread_0.statExecutedInstType::FloatMultAcc            0      0.00%     54.90% # Class of executed instruction. (Count)
system.cpu1.exec_context.thread_0.statExecutedInstType::FloatDiv            0      0.00%     54.90% # Class of executed instruction. (Count)
system.cpu1.exec_context.thread_0.statExecutedInstType::FloatMisc            0      0.00%     54.90% # Class of executed instruction. (Count)
system.cpu1.exec_context.thread_0.statExecutedInstType::FloatSqrt            0      0.00%     54.90% # Class of executed instruction. (Count)
system.cpu1.exec_context.thread_0.statExecutedInstType::SimdAdd            0      0.00%     54.90% # Class of executed instruction. (Count)
system.cpu1.exec_context.thread_0.statExecutedInstType::SimdAddAcc            0      0.00%     54.90% # Class of executed instruction. (Count)
system.cpu1.exec_context.thread_0.statExecutedInstType::SimdAlu            0      0.00%     54.90% # Class of executed instruction. (Count)
system.cpu1.exec_context.thread_0.statExecutedInstType::SimdCmp            0      0.00%     54.90% # Class of executed instruction. (Count)
system.cpu1.exec_context.thread_0.statExecutedInstType::SimdCvt            0      0.00%     54.90% # Class of executed instruction. (Count)
system.cpu1.exec_context.thread_0.statExecutedInstType::SimdMisc            0      0.00%     54.90% # Class of executed instruction. (Count)
system.cpu1.exec_context.thread_0.statExecutedInstType::SimdMult            0      0.00%     54.90% # Class of executed instruction. (Count)
system.cpu1.exec_context.thread_0.statExecutedInstType::SimdMultAcc            0      0.00%     54.90% # Class of executed instruction. (Count)
system.cpu1.exec_context.thread_0.statExecutedInstType::SimdShift            0      0.00%     54.90% # Class of executed instruction. (Count)
system.cpu1.exec_context.thread_0.statExecutedInstType::SimdShiftAcc            0      0.00%     54.90% # Class of executed instruction. (Count)
system.cpu1.exec_context.thread_0.statExecutedInstType::SimdDiv            0      0.00%     54.90% # Class of executed instruction. (Count)
system.cpu1.exec_context.thread_0.statExecutedInstType::SimdSqrt            0      0.00%     54.90% # Class of executed instruction. (Count)
system.cpu1.exec_context.thread_0.statExecutedInstType::SimdFloatAdd      1584080     12.30%     67.20% # Class of executed instruction. (Count)
system.cpu1.exec_context.thread_0.statExecutedInstType::SimdFloatAlu            0      0.00%     67.20% # Class of executed instruction. (Count)
system.cpu1.exec_context.thread_0.statExecutedInstType::SimdFloatCmp            0      0.00%     67.20% # Class of executed instruction. (Count)
system.cpu1.exec_context.thread_0.statExecutedInstType::SimdFloatCvt            0      0.00%     67.20% # Class of executed instruction. (Count)
system.cpu1.exec_context.thread_0.statExecutedInstType::SimdFloatDiv            0      0.00%     67.20% # Class of executed instruction. (Count)
system.cpu1.exec_context.thread_0.statExecutedInstType::SimdFloatMisc            0      0.00%     67.20% # Class of executed instruction. (Count)
system.cpu1.exec_context.thread_0.statExecutedInstType::SimdFloatMult       390660      3.03%     70.23% # Class of executed instruction. (Count)
system.cpu1.exec_context.thread_0.statExecutedInstType::SimdFloatMultAcc            0      0.00%     70.23% # Class of executed instruction. (Count)
system.cpu1.exec_context.thread_0.statExecutedInstType::SimdFloatSqrt            0      0.00%     70.23% # Class of executed instruction. (Count)
system.cpu1.exec_context.thread_0.statExecutedInstType::SimdReduceAdd            0      0.00%     70.23% # Class of executed instruction. (Count)
system.cpu1.exec_context.thread_0.statExecutedInstType::SimdReduceAlu            0      0.00%     70.23% # Class of executed instruction. (Count)
system.cpu1.exec_context.thread_0.statExecutedInstType::SimdReduceCmp            0      0.00%     70.23% # Class of executed instruction. (Count)
system.cpu1.exec_context.thread_0.statExecutedInstType::SimdFloatReduceAdd            0      0.00%     70.23% # Class of executed instruction. (Count)
system.cpu1.exec_context.thread_0.statExecutedInstType::SimdFloatReduceCmp            0      0.00%     70.23% # Class of executed instruction. (Count)
system.cpu1.exec_context.thread_0.statExecutedInstType::SimdAes            0      0.00%     70.23% # Class of executed instruction. (Count)
system.cpu1.exec_context.thread_0.statExecutedInstType::SimdAesMix            0      0.00%     70.23% # Class of executed instruction. (Count)
system.cpu1.exec_context.thread_0.statExecutedInstType::SimdSha1Hash            0      0.00%     70.23% # Class of executed instruction. (Count)
system.cpu1.exec_context.thread_0.statExecutedInstType::SimdSha1Hash2            0      0.00%     70.23% # Class of executed instruction. (Count)
system.cpu1.exec_context.thread_0.statExecutedInstType::SimdSha256Hash            0      0.00%     70.23% # Class of executed instruction. (Count)
system.cpu1.exec_context.thread_0.statExecutedInstType::SimdSha256Hash2            0      0.00%     70.23% # Class of executed instruction. (Count)
system.cpu1.exec_context.thread_0.statExecutedInstType::SimdShaSigma2            0      0.00%     70.23% # Class of executed instruction. (Count)
system.cpu1.exec_context.thread_0.statExecutedInstType::SimdShaSigma3            0      0.00%     70.23% # Class of executed instruction. (Count)
system.cpu1.exec_context.thread_0.statExecutedInstType::SimdPredAlu            0      0.00%     70.23% # Class of executed instruction. (Count)
system.cpu1.exec_context.thread_0.statExecutedInstType::MemRead      1001839      7.78%     78.01% # Class of executed instruction. (Count)
system.cpu1.exec_context.thread_0.statExecutedInstType::MemWrite       105440      0.82%     78.83% # Class of executed instruction. (Count)
system.cpu1.exec_context.thread_0.statExecutedInstType::FloatMemRead      2295904     17.83%     96.65% # Class of executed instruction. (Count)
system.cpu1.exec_context.thread_0.statExecutedInstType::FloatMemWrite       431120      3.35%    100.00% # Class of executed instruction. (Count)
system.cpu1.exec_context.thread_0.statExecutedInstType::IprAccess            0      0.00%    100.00% # Class of executed instruction. (Count)
system.cpu1.exec_context.thread_0.statExecutedInstType::InstPrefetch            0      0.00%    100.00% # Class of executed instruction. (Count)
system.cpu1.exec_context.thread_0.statExecutedInstType::total     12879402                       # Class of executed instruction. (Count)
system.cpu1.interrupts.clk_domain.clock          5328                       # Clock period in ticks (Tick)
system.cpu1.mmu.dtb.rdAccesses                3298394                       # TLB accesses on read requests (Count)
system.cpu1.mmu.dtb.wrAccesses                 536854                       # TLB accesses on write requests (Count)
system.cpu1.mmu.dtb.rdMisses                      652                       # TLB misses on read requests (Count)
system.cpu1.mmu.dtb.wrMisses                      294                       # TLB misses on write requests (Count)
system.cpu1.mmu.dtb.walker.power_state.pwrStateResidencyTicks::UNDEFINED 5150287570986                       # Cumulative time (in ticks) in various power states (Tick)
system.cpu1.mmu.itb.rdAccesses                      0                       # TLB accesses on read requests (Count)
system.cpu1.mmu.itb.wrAccesses               12086998                       # TLB accesses on write requests (Count)
system.cpu1.mmu.itb.rdMisses                        0                       # TLB misses on read requests (Count)
system.cpu1.mmu.itb.wrMisses                        0                       # TLB misses on write requests (Count)
system.cpu1.mmu.itb.walker.power_state.pwrStateResidencyTicks::UNDEFINED 5150287570986                       # Cumulative time (in ticks) in various power states (Tick)
system.cpu1.power_state.pwrStateResidencyTicks::ON  25682816426                       # Cumulative time (in ticks) in various power states (Tick)
system.cpu1.thread_0.numInsts                       0                       # Number of Instructions committed (Count)
system.cpu1.thread_0.numOps                         0                       # Number of Ops committed (Count)
system.cpu1.thread_0.numMemRefs                     0                       # Number of Memory References (Count)
system.cpu2.numCycles                        40562086                       # Number of cpu cycles simulated (Cycle)
system.cpu2.numWorkItemsStarted                     0                       # Number of work items this cpu started (Count)
system.cpu2.numWorkItemsCompleted                   0                       # Number of work items this cpu completed (Count)
system.cpu2.exec_context.thread_0.numInsts      8836004                       # Number of instructions committed (Count)
system.cpu2.exec_context.thread_0.numOps     13772942                       # Number of ops (including micro ops) committed (Count)
system.cpu2.exec_context.thread_0.numIntAluAccesses     10956709                       # Number of integer alu accesses (Count)
system.cpu2.exec_context.thread_0.numFpAluAccesses      5139704                       # Number of float alu accesses (Count)
system.cpu2.exec_context.thread_0.numVecAluAccesses            0                       # Number of vector alu accesses (Count)
system.cpu2.exec_context.thread_0.numCallsReturns         2668                       # Number of times a function call or return occured (Count)
system.cpu2.exec_context.thread_0.numCondCtrlInsts       775776                       # Number of instructions that are conditional controls (Count)
system.cpu2.exec_context.thread_0.numIntInsts     10956709                       # Number of integer instructions (Count)
system.cpu2.exec_context.thread_0.numFpInsts      5139704                       # Number of float instructions (Count)
system.cpu2.exec_context.thread_0.numVecInsts            0                       # Number of vector instructions (Count)
system.cpu2.exec_context.thread_0.numIntRegReads     16498642                       # Number of times the integer registers were read (Count)
system.cpu2.exec_context.thread_0.numIntRegWrites      6762212                       # Number of times the integer registers were written (Count)
system.cpu2.exec_context.thread_0.numFpRegReads      6029560                       # Number of times the floating registers were read (Count)
system.cpu2.exec_context.thread_0.numFpRegWrites      4761256                       # Number of times the floating registers were written (Count)
system.cpu2.exec_context.thread_0.numVecRegReads            0                       # Number of times the vector registers were read (Count)
system.cpu2.exec_context.thread_0.numVecRegWrites            0                       # Number of times the vector registers were written (Count)
system.cpu2.exec_context.thread_0.numVecPredRegReads            0                       # Number of times the predicate registers were read (Count)
system.cpu2.exec_context.thread_0.numVecPredRegWrites            0                       # Number of times the predicate registers were written (Count)
system.cpu2.exec_context.thread_0.numCCRegReads      3912544                       # Number of times the CC registers were read (Count)
system.cpu2.exec_context.thread_0.numCCRegWrites      3741041                       # Number of times the CC registers were written (Count)
system.cpu2.exec_context.thread_0.numMiscRegReads      5273405                       # Number of times the Misc registers were read (Count)
system.cpu2.exec_context.thread_0.numMiscRegWrites         1285                       # Number of times the Misc registers were written (Count)
system.cpu2.exec_context.thread_0.numMemRefs      3685995                       # Number of memory refs (Count)
system.cpu2.exec_context.thread_0.numLoadInsts      3254792                       # Number of load instructions (Count)
system.cpu2.exec_context.thread_0.numStoreInsts       431203                       # Number of store instructions (Count)
system.cpu2.exec_context.thread_0.numIdleCycles            0                       # Number of idle cycles (Cycle)
system.cpu2.exec_context.thread_0.numBusyCycles     40562086                       # Number of busy cycles (Cycle)
system.cpu2.exec_context.thread_0.notIdleFraction            1                       # Percentage of non-idle cycles (Ratio)
system.cpu2.exec_context.thread_0.idleFraction            0                       # Percentage of idle cycles (Ratio)
system.cpu2.exec_context.thread_0.numBranches       793595                       # Number of branches fetched (Count)
system.cpu2.exec_context.thread_0.statExecutedInstType::No_OpClass          333      0.00%      0.00% # Class of executed instruction. (Count)
system.cpu2.exec_context.thread_0.statExecutedInstType::IntAlu      7500197     54.46%     54.46% # Class of executed instruction. (Count)
system.cpu2.exec_context.thread_0.statExecutedInstType::IntMult        46474      0.34%     54.80% # Class of executed instruction. (Count)
system.cpu2.exec_context.thread_0.statExecutedInstType::IntDiv         1400      0.01%     54.81% # Class of executed instruction. (Count)
system.cpu2.exec_context.thread_0.statExecutedInstType::FloatAdd       673592      4.89%     59.70% # Class of executed instruction. (Count)
system.cpu2.exec_context.thread_0.statExecutedInstType::FloatCmp            0      0.00%     59.70% # Class of executed instruction. (Count)
system.cpu2.exec_context.thread_0.statExecutedInstType::FloatCvt            0      0.00%     59.70% # Class of executed instruction. (Count)
system.cpu2.exec_context.thread_0.statExecutedInstType::FloatMult            0      0.00%     59.70% # Class of executed instruction. (Count)
system.cpu2.exec_context.thread_0.statExecutedInstType::FloatMultAcc            0      0.00%     59.70% # Class of executed instruction. (Count)
system.cpu2.exec_context.thread_0.statExecutedInstType::FloatDiv            0      0.00%     59.70% # Class of executed instruction. (Count)
system.cpu2.exec_context.thread_0.statExecutedInstType::FloatMisc            0      0.00%     59.70% # Class of executed instruction. (Count)
system.cpu2.exec_context.thread_0.statExecutedInstType::FloatSqrt            0      0.00%     59.70% # Class of executed instruction. (Count)
system.cpu2.exec_context.thread_0.statExecutedInstType::SimdAdd            0      0.00%     59.70% # Class of executed instruction. (Count)
system.cpu2.exec_context.thread_0.statExecutedInstType::SimdAddAcc            0      0.00%     59.70% # Class of executed instruction. (Count)
system.cpu2.exec_context.thread_0.statExecutedInstType::SimdAlu            0      0.00%     59.70% # Class of executed instruction. (Count)
system.cpu2.exec_context.thread_0.statExecutedInstType::SimdCmp            0      0.00%     59.70% # Class of executed instruction. (Count)
system.cpu2.exec_context.thread_0.statExecutedInstType::SimdCvt            0      0.00%     59.70% # Class of executed instruction. (Count)
system.cpu2.exec_context.thread_0.statExecutedInstType::SimdMisc            0      0.00%     59.70% # Class of executed instruction. (Count)
system.cpu2.exec_context.thread_0.statExecutedInstType::SimdMult            0      0.00%     59.70% # Class of executed instruction. (Count)
system.cpu2.exec_context.thread_0.statExecutedInstType::SimdMultAcc            0      0.00%     59.70% # Class of executed instruction. (Count)
system.cpu2.exec_context.thread_0.statExecutedInstType::SimdShift            0      0.00%     59.70% # Class of executed instruction. (Count)
system.cpu2.exec_context.thread_0.statExecutedInstType::SimdShiftAcc            0      0.00%     59.70% # Class of executed instruction. (Count)
system.cpu2.exec_context.thread_0.statExecutedInstType::SimdDiv            0      0.00%     59.70% # Class of executed instruction. (Count)
system.cpu2.exec_context.thread_0.statExecutedInstType::SimdSqrt            0      0.00%     59.70% # Class of executed instruction. (Count)
system.cpu2.exec_context.thread_0.statExecutedInstType::SimdFloatAdd      1507136     10.94%     70.64% # Class of executed instruction. (Count)
system.cpu2.exec_context.thread_0.statExecutedInstType::SimdFloatAlu            0      0.00%     70.64% # Class of executed instruction. (Count)
system.cpu2.exec_context.thread_0.statExecutedInstType::SimdFloatCmp            0      0.00%     70.64% # Class of executed instruction. (Count)
system.cpu2.exec_context.thread_0.statExecutedInstType::SimdFloatCvt            0      0.00%     70.64% # Class of executed instruction. (Count)
system.cpu2.exec_context.thread_0.statExecutedInstType::SimdFloatDiv            0      0.00%     70.64% # Class of executed instruction. (Count)
system.cpu2.exec_context.thread_0.statExecutedInstType::SimdFloatMisc            0      0.00%     70.64% # Class of executed instruction. (Count)
system.cpu2.exec_context.thread_0.statExecutedInstType::SimdFloatMult       357816      2.60%     73.24% # Class of executed instruction. (Count)
system.cpu2.exec_context.thread_0.statExecutedInstType::SimdFloatMultAcc            0      0.00%     73.24% # Class of executed instruction. (Count)
system.cpu2.exec_context.thread_0.statExecutedInstType::SimdFloatSqrt            0      0.00%     73.24% # Class of executed instruction. (Count)
system.cpu2.exec_context.thread_0.statExecutedInstType::SimdReduceAdd            0      0.00%     73.24% # Class of executed instruction. (Count)
system.cpu2.exec_context.thread_0.statExecutedInstType::SimdReduceAlu            0      0.00%     73.24% # Class of executed instruction. (Count)
system.cpu2.exec_context.thread_0.statExecutedInstType::SimdReduceCmp            0      0.00%     73.24% # Class of executed instruction. (Count)
system.cpu2.exec_context.thread_0.statExecutedInstType::SimdFloatReduceAdd            0      0.00%     73.24% # Class of executed instruction. (Count)
system.cpu2.exec_context.thread_0.statExecutedInstType::SimdFloatReduceCmp            0      0.00%     73.24% # Class of executed instruction. (Count)
system.cpu2.exec_context.thread_0.statExecutedInstType::SimdAes            0      0.00%     73.24% # Class of executed instruction. (Count)
system.cpu2.exec_context.thread_0.statExecutedInstType::SimdAesMix            0      0.00%     73.24% # Class of executed instruction. (Count)
system.cpu2.exec_context.thread_0.statExecutedInstType::SimdSha1Hash            0      0.00%     73.24% # Class of executed instruction. (Count)
system.cpu2.exec_context.thread_0.statExecutedInstType::SimdSha1Hash2            0      0.00%     73.24% # Class of executed instruction. (Count)
system.cpu2.exec_context.thread_0.statExecutedInstType::SimdSha256Hash            0      0.00%     73.24% # Class of executed instruction. (Count)
system.cpu2.exec_context.thread_0.statExecutedInstType::SimdSha256Hash2            0      0.00%     73.24% # Class of executed instruction. (Count)
system.cpu2.exec_context.thread_0.statExecutedInstType::SimdShaSigma2            0      0.00%     73.24% # Class of executed instruction. (Count)
system.cpu2.exec_context.thread_0.statExecutedInstType::SimdShaSigma3            0      0.00%     73.24% # Class of executed instruction. (Count)
system.cpu2.exec_context.thread_0.statExecutedInstType::SimdPredAlu            0      0.00%     73.24% # Class of executed instruction. (Count)
system.cpu2.exec_context.thread_0.statExecutedInstType::MemRead      1060208      7.70%     80.94% # Class of executed instruction. (Count)
system.cpu2.exec_context.thread_0.statExecutedInstType::MemWrite        52755      0.38%     81.32% # Class of executed instruction. (Count)
system.cpu2.exec_context.thread_0.statExecutedInstType::FloatMemRead      2194584     15.93%     97.25% # Class of executed instruction. (Count)
system.cpu2.exec_context.thread_0.statExecutedInstType::FloatMemWrite       378448      2.75%    100.00% # Class of executed instruction. (Count)
system.cpu2.exec_context.thread_0.statExecutedInstType::IprAccess            0      0.00%    100.00% # Class of executed instruction. (Count)
system.cpu2.exec_context.thread_0.statExecutedInstType::InstPrefetch            0      0.00%    100.00% # Class of executed instruction. (Count)
system.cpu2.exec_context.thread_0.statExecutedInstType::total     13772943                       # Class of executed instruction. (Count)
system.cpu2.interrupts.clk_domain.clock          5328                       # Clock period in ticks (Tick)
system.cpu2.mmu.dtb.rdAccesses                3255343                       # TLB accesses on read requests (Count)
system.cpu2.mmu.dtb.wrAccesses                 431438                       # TLB accesses on write requests (Count)
system.cpu2.mmu.dtb.rdMisses                      552                       # TLB misses on read requests (Count)
system.cpu2.mmu.dtb.wrMisses                      235                       # TLB misses on write requests (Count)
system.cpu2.mmu.dtb.walker.power_state.pwrStateResidencyTicks::UNDEFINED 5150287570986                       # Cumulative time (in ticks) in various power states (Tick)
system.cpu2.mmu.itb.rdAccesses                      0                       # TLB accesses on read requests (Count)
system.cpu2.mmu.itb.wrAccesses               12389103                       # TLB accesses on write requests (Count)
system.cpu2.mmu.itb.rdMisses                        0                       # TLB misses on read requests (Count)
system.cpu2.mmu.itb.wrMisses                        0                       # TLB misses on write requests (Count)
system.cpu2.mmu.itb.walker.power_state.pwrStateResidencyTicks::UNDEFINED 5150287570986                       # Cumulative time (in ticks) in various power states (Tick)
system.cpu2.power_state.pwrStateResidencyTicks::ON  20526110010                       # Cumulative time (in ticks) in various power states (Tick)
system.cpu2.thread_0.numInsts                       0                       # Number of Instructions committed (Count)
system.cpu2.thread_0.numOps                         0                       # Number of Ops committed (Count)
system.cpu2.thread_0.numMemRefs                     0                       # Number of Memory References (Count)
system.cpu3.numCycles                        40562344                       # Number of cpu cycles simulated (Cycle)
system.cpu3.numWorkItemsStarted                     0                       # Number of work items this cpu started (Count)
system.cpu3.numWorkItemsCompleted                   0                       # Number of work items this cpu completed (Count)
system.cpu3.exec_context.thread_0.numInsts      8464024                       # Number of instructions committed (Count)
system.cpu3.exec_context.thread_0.numOps     12936371                       # Number of ops (including micro ops) committed (Count)
system.cpu3.exec_context.thread_0.numIntAluAccesses     10081034                       # Number of integer alu accesses (Count)
system.cpu3.exec_context.thread_0.numFpAluAccesses      5476204                       # Number of float alu accesses (Count)
system.cpu3.exec_context.thread_0.numVecAluAccesses            0                       # Number of vector alu accesses (Count)
system.cpu3.exec_context.thread_0.numCallsReturns         2033                       # Number of times a function call or return occured (Count)
system.cpu3.exec_context.thread_0.numCondCtrlInsts       520593                       # Number of instructions that are conditional controls (Count)
system.cpu3.exec_context.thread_0.numIntInsts     10081034                       # Number of integer instructions (Count)
system.cpu3.exec_context.thread_0.numFpInsts      5476204                       # Number of float instructions (Count)
system.cpu3.exec_context.thread_0.numVecInsts            0                       # Number of vector instructions (Count)
system.cpu3.exec_context.thread_0.numIntRegReads     15990496                       # Number of times the integer registers were read (Count)
system.cpu3.exec_context.thread_0.numIntRegWrites      6236091                       # Number of times the integer registers were written (Count)
system.cpu3.exec_context.thread_0.numFpRegReads      6488028                       # Number of times the floating registers were read (Count)
system.cpu3.exec_context.thread_0.numFpRegWrites      5045084                       # Number of times the floating registers were written (Count)
system.cpu3.exec_context.thread_0.numVecRegReads            0                       # Number of times the vector registers were read (Count)
system.cpu3.exec_context.thread_0.numVecRegWrites            0                       # Number of times the vector registers were written (Count)
system.cpu3.exec_context.thread_0.numVecPredRegReads            0                       # Number of times the predicate registers were read (Count)
system.cpu3.exec_context.thread_0.numVecPredRegWrites            0                       # Number of times the predicate registers were written (Count)
system.cpu3.exec_context.thread_0.numCCRegReads      2634738                       # Number of times the CC registers were read (Count)
system.cpu3.exec_context.thread_0.numCCRegWrites      3131069                       # Number of times the CC registers were written (Count)
system.cpu3.exec_context.thread_0.numMiscRegReads      4856501                       # Number of times the Misc registers were read (Count)
system.cpu3.exec_context.thread_0.numMiscRegWrites          562                       # Number of times the Misc registers were written (Count)
system.cpu3.exec_context.thread_0.numMemRefs      3774641                       # Number of memory refs (Count)
system.cpu3.exec_context.thread_0.numLoadInsts      3285352                       # Number of load instructions (Count)
system.cpu3.exec_context.thread_0.numStoreInsts       489289                       # Number of store instructions (Count)
system.cpu3.exec_context.thread_0.numIdleCycles            0                       # Number of idle cycles (Cycle)
system.cpu3.exec_context.thread_0.numBusyCycles     40562344                       # Number of busy cycles (Cycle)
system.cpu3.exec_context.thread_0.notIdleFraction            1                       # Percentage of non-idle cycles (Ratio)
system.cpu3.exec_context.thread_0.idleFraction            0                       # Percentage of idle cycles (Ratio)
system.cpu3.exec_context.thread_0.numBranches       540421                       # Number of branches fetched (Count)
system.cpu3.exec_context.thread_0.statExecutedInstType::No_OpClass          345      0.00%      0.00% # Class of executed instruction. (Count)
system.cpu3.exec_context.thread_0.statExecutedInstType::IntAlu      6424833     49.66%     49.67% # Class of executed instruction. (Count)
system.cpu3.exec_context.thread_0.statExecutedInstType::IntMult        52317      0.40%     50.07% # Class of executed instruction. (Count)
system.cpu3.exec_context.thread_0.statExecutedInstType::IntDiv         1400      0.01%     50.08% # Class of executed instruction. (Count)
system.cpu3.exec_context.thread_0.statExecutedInstType::FloatAdd       708096      5.47%     55.56% # Class of executed instruction. (Count)
system.cpu3.exec_context.thread_0.statExecutedInstType::FloatCmp            0      0.00%     55.56% # Class of executed instruction. (Count)
system.cpu3.exec_context.thread_0.statExecutedInstType::FloatCvt            0      0.00%     55.56% # Class of executed instruction. (Count)
system.cpu3.exec_context.thread_0.statExecutedInstType::FloatMult            0      0.00%     55.56% # Class of executed instruction. (Count)
system.cpu3.exec_context.thread_0.statExecutedInstType::FloatMultAcc            0      0.00%     55.56% # Class of executed instruction. (Count)
system.cpu3.exec_context.thread_0.statExecutedInstType::FloatDiv            0      0.00%     55.56% # Class of executed instruction. (Count)
system.cpu3.exec_context.thread_0.statExecutedInstType::FloatMisc            0      0.00%     55.56% # Class of executed instruction. (Count)
system.cpu3.exec_context.thread_0.statExecutedInstType::FloatSqrt            0      0.00%     55.56% # Class of executed instruction. (Count)
system.cpu3.exec_context.thread_0.statExecutedInstType::SimdAdd            0      0.00%     55.56% # Class of executed instruction. (Count)
system.cpu3.exec_context.thread_0.statExecutedInstType::SimdAddAcc            0      0.00%     55.56% # Class of executed instruction. (Count)
system.cpu3.exec_context.thread_0.statExecutedInstType::SimdAlu            0      0.00%     55.56% # Class of executed instruction. (Count)
system.cpu3.exec_context.thread_0.statExecutedInstType::SimdCmp            0      0.00%     55.56% # Class of executed instruction. (Count)
system.cpu3.exec_context.thread_0.statExecutedInstType::SimdCvt            0      0.00%     55.56% # Class of executed instruction. (Count)
system.cpu3.exec_context.thread_0.statExecutedInstType::SimdMisc            0      0.00%     55.56% # Class of executed instruction. (Count)
system.cpu3.exec_context.thread_0.statExecutedInstType::SimdMult            0      0.00%     55.56% # Class of executed instruction. (Count)
system.cpu3.exec_context.thread_0.statExecutedInstType::SimdMultAcc            0      0.00%     55.56% # Class of executed instruction. (Count)
system.cpu3.exec_context.thread_0.statExecutedInstType::SimdShift            0      0.00%     55.56% # Class of executed instruction. (Count)
system.cpu3.exec_context.thread_0.statExecutedInstType::SimdShiftAcc            0      0.00%     55.56% # Class of executed instruction. (Count)
system.cpu3.exec_context.thread_0.statExecutedInstType::SimdDiv            0      0.00%     55.56% # Class of executed instruction. (Count)
system.cpu3.exec_context.thread_0.statExecutedInstType::SimdSqrt            0      0.00%     55.56% # Class of executed instruction. (Count)
system.cpu3.exec_context.thread_0.statExecutedInstType::SimdFloatAdd      1584080     12.25%     67.80% # Class of executed instruction. (Count)
system.cpu3.exec_context.thread_0.statExecutedInstType::SimdFloatAlu            0      0.00%     67.80% # Class of executed instruction. (Count)
system.cpu3.exec_context.thread_0.statExecutedInstType::SimdFloatCmp            0      0.00%     67.80% # Class of executed instruction. (Count)
system.cpu3.exec_context.thread_0.statExecutedInstType::SimdFloatCvt            0      0.00%     67.80% # Class of executed instruction. (Count)
system.cpu3.exec_context.thread_0.statExecutedInstType::SimdFloatDiv            0      0.00%     67.80% # Class of executed instruction. (Count)
system.cpu3.exec_context.thread_0.statExecutedInstType::SimdFloatMisc            0      0.00%     67.80% # Class of executed instruction. (Count)
system.cpu3.exec_context.thread_0.statExecutedInstType::SimdFloatMult       390660      3.02%     70.82% # Class of executed instruction. (Count)
system.cpu3.exec_context.thread_0.statExecutedInstType::SimdFloatMultAcc            0      0.00%     70.82% # Class of executed instruction. (Count)
system.cpu3.exec_context.thread_0.statExecutedInstType::SimdFloatSqrt            0      0.00%     70.82% # Class of executed instruction. (Count)
system.cpu3.exec_context.thread_0.statExecutedInstType::SimdReduceAdd            0      0.00%     70.82% # Class of executed instruction. (Count)
system.cpu3.exec_context.thread_0.statExecutedInstType::SimdReduceAlu            0      0.00%     70.82% # Class of executed instruction. (Count)
system.cpu3.exec_context.thread_0.statExecutedInstType::SimdReduceCmp            0      0.00%     70.82% # Class of executed instruction. (Count)
system.cpu3.exec_context.thread_0.statExecutedInstType::SimdFloatReduceAdd            0      0.00%     70.82% # Class of executed instruction. (Count)
system.cpu3.exec_context.thread_0.statExecutedInstType::SimdFloatReduceCmp            0      0.00%     70.82% # Class of executed instruction. (Count)
system.cpu3.exec_context.thread_0.statExecutedInstType::SimdAes            0      0.00%     70.82% # Class of executed instruction. (Count)
system.cpu3.exec_context.thread_0.statExecutedInstType::SimdAesMix            0      0.00%     70.82% # Class of executed instruction. (Count)
system.cpu3.exec_context.thread_0.statExecutedInstType::SimdSha1Hash            0      0.00%     70.82% # Class of executed instruction. (Count)
system.cpu3.exec_context.thread_0.statExecutedInstType::SimdSha1Hash2            0      0.00%     70.82% # Class of executed instruction. (Count)
system.cpu3.exec_context.thread_0.statExecutedInstType::SimdSha256Hash            0      0.00%     70.82% # Class of executed instruction. (Count)
system.cpu3.exec_context.thread_0.statExecutedInstType::SimdSha256Hash2            0      0.00%     70.82% # Class of executed instruction. (Count)
system.cpu3.exec_context.thread_0.statExecutedInstType::SimdShaSigma2            0      0.00%     70.82% # Class of executed instruction. (Count)
system.cpu3.exec_context.thread_0.statExecutedInstType::SimdShaSigma3            0      0.00%     70.82% # Class of executed instruction. (Count)
system.cpu3.exec_context.thread_0.statExecutedInstType::SimdPredAlu            0      0.00%     70.82% # Class of executed instruction. (Count)
system.cpu3.exec_context.thread_0.statExecutedInstType::MemRead       989448      7.65%     78.47% # Class of executed instruction. (Count)
system.cpu3.exec_context.thread_0.statExecutedInstType::MemWrite        58169      0.45%     78.92% # Class of executed instruction. (Count)
system.cpu3.exec_context.thread_0.statExecutedInstType::FloatMemRead      2295904     17.75%     96.67% # Class of executed instruction. (Count)
system.cpu3.exec_context.thread_0.statExecutedInstType::FloatMemWrite       431120      3.33%    100.00% # Class of executed instruction. (Count)
system.cpu3.exec_context.thread_0.statExecutedInstType::IprAccess            0      0.00%    100.00% # Class of executed instruction. (Count)
system.cpu3.exec_context.thread_0.statExecutedInstType::InstPrefetch            0      0.00%    100.00% # Class of executed instruction. (Count)
system.cpu3.exec_context.thread_0.statExecutedInstType::total     12936372                       # Class of executed instruction. (Count)
system.cpu3.interrupts.clk_domain.clock          5328                       # Clock period in ticks (Tick)
system.cpu3.mmu.dtb.rdAccesses                3285985                       # TLB accesses on read requests (Count)
system.cpu3.mmu.dtb.wrAccesses                 489548                       # TLB accesses on write requests (Count)
system.cpu3.mmu.dtb.rdMisses                      634                       # TLB misses on read requests (Count)
system.cpu3.mmu.dtb.wrMisses                      259                       # TLB misses on write requests (Count)
system.cpu3.mmu.dtb.walker.power_state.pwrStateResidencyTicks::UNDEFINED 5150287570986                       # Cumulative time (in ticks) in various power states (Tick)
system.cpu3.mmu.itb.rdAccesses                      0                       # TLB accesses on read requests (Count)
system.cpu3.mmu.itb.wrAccesses               12085018                       # TLB accesses on write requests (Count)
system.cpu3.mmu.itb.rdMisses                        0                       # TLB misses on read requests (Count)
system.cpu3.mmu.itb.wrMisses                        0                       # TLB misses on write requests (Count)
system.cpu3.mmu.itb.walker.power_state.pwrStateResidencyTicks::UNDEFINED 5150287570986                       # Cumulative time (in ticks) in various power states (Tick)
system.cpu3.power_state.pwrStateResidencyTicks::ON  16527328794                       # Cumulative time (in ticks) in various power states (Tick)
system.cpu3.thread_0.numInsts                       0                       # Number of Instructions committed (Count)
system.cpu3.thread_0.numOps                         0                       # Number of Ops committed (Count)
system.cpu3.thread_0.numMemRefs                     0                       # Number of Memory References (Count)
system.cpu_clk_domain.clock                       333                       # Clock period in ticks (Tick)
system.cpu_voltage_domain.voltage                   1                       # Voltage in Volts (Volt)
system.iobus.transDist::WriteReq                   24                       # Transaction distribution (Count)
system.iobus.transDist::WriteResp                  24                       # Transaction distribution (Count)
system.iobus.pktCount_system.pc.south_bridge.io_apic.int_request::system.ruby.l1_cntrl0.sequencer.pio-response-port            2                       # Packet count per connected requestor and responder (Count)
system.iobus.pktCount_system.pc.south_bridge.io_apic.int_request::system.ruby.l1_cntrl1.sequencer.pio-response-port            2                       # Packet count per connected requestor and responder (Count)
system.iobus.pktCount_system.pc.south_bridge.io_apic.int_request::system.ruby.l1_cntrl2.sequencer.pio-response-port            2                       # Packet count per connected requestor and responder (Count)
system.iobus.pktCount_system.pc.south_bridge.io_apic.int_request::system.ruby.l1_cntrl3.sequencer.pio-response-port            2                       # Packet count per connected requestor and responder (Count)
system.iobus.pktCount_system.pc.south_bridge.io_apic.int_request::total            8                       # Packet count per connected requestor and responder (Count)
system.iobus.pktCount_system.ruby.l1_cntrl0.sequencer.mem-request-port::system.ruby.l1_cntrl0.sequencer.pio-response-port           10                       # Packet count per connected requestor and responder (Count)
system.iobus.pktCount_system.ruby.l1_cntrl0.sequencer.mem-request-port::total           10                       # Packet count per connected requestor and responder (Count)
system.iobus.pktCount_system.ruby.l1_cntrl1.sequencer.mem-request-port::system.ruby.l1_cntrl1.sequencer.pio-response-port           10                       # Packet count per connected requestor and responder (Count)
system.iobus.pktCount_system.ruby.l1_cntrl1.sequencer.mem-request-port::total           10                       # Packet count per connected requestor and responder (Count)
system.iobus.pktCount_system.ruby.l1_cntrl2.sequencer.mem-request-port::system.ruby.l1_cntrl2.sequencer.pio-response-port           10                       # Packet count per connected requestor and responder (Count)
system.iobus.pktCount_system.ruby.l1_cntrl2.sequencer.mem-request-port::total           10                       # Packet count per connected requestor and responder (Count)
system.iobus.pktCount_system.ruby.l1_cntrl3.sequencer.mem-request-port::system.ruby.l1_cntrl3.sequencer.pio-response-port           10                       # Packet count per connected requestor and responder (Count)
system.iobus.pktCount_system.ruby.l1_cntrl3.sequencer.mem-request-port::total           10                       # Packet count per connected requestor and responder (Count)
system.iobus.pktCount::total                       48                       # Packet count per connected requestor and responder (Count)
system.iobus.pktSize_system.pc.south_bridge.io_apic.int_request::system.ruby.l1_cntrl0.sequencer.pio-response-port            4                       # Cumulative packet size per connected requestor and responder (Byte)
system.iobus.pktSize_system.pc.south_bridge.io_apic.int_request::system.ruby.l1_cntrl1.sequencer.pio-response-port            4                       # Cumulative packet size per connected requestor and responder (Byte)
system.iobus.pktSize_system.pc.south_bridge.io_apic.int_request::system.ruby.l1_cntrl2.sequencer.pio-response-port            4                       # Cumulative packet size per connected requestor and responder (Byte)
system.iobus.pktSize_system.pc.south_bridge.io_apic.int_request::system.ruby.l1_cntrl3.sequencer.pio-response-port            4                       # Cumulative packet size per connected requestor and responder (Byte)
system.iobus.pktSize_system.pc.south_bridge.io_apic.int_request::total           16                       # Cumulative packet size per connected requestor and responder (Byte)
system.iobus.pktSize_system.ruby.l1_cntrl0.sequencer.mem-request-port::system.ruby.l1_cntrl0.sequencer.pio-response-port           20                       # Cumulative packet size per connected requestor and responder (Byte)
system.iobus.pktSize_system.ruby.l1_cntrl0.sequencer.mem-request-port::total           20                       # Cumulative packet size per connected requestor and responder (Byte)
system.iobus.pktSize_system.ruby.l1_cntrl1.sequencer.mem-request-port::system.ruby.l1_cntrl1.sequencer.pio-response-port           20                       # Cumulative packet size per connected requestor and responder (Byte)
system.iobus.pktSize_system.ruby.l1_cntrl1.sequencer.mem-request-port::total           20                       # Cumulative packet size per connected requestor and responder (Byte)
system.iobus.pktSize_system.ruby.l1_cntrl2.sequencer.mem-request-port::system.ruby.l1_cntrl2.sequencer.pio-response-port           20                       # Cumulative packet size per connected requestor and responder (Byte)
system.iobus.pktSize_system.ruby.l1_cntrl2.sequencer.mem-request-port::total           20                       # Cumulative packet size per connected requestor and responder (Byte)
system.iobus.pktSize_system.ruby.l1_cntrl3.sequencer.mem-request-port::system.ruby.l1_cntrl3.sequencer.pio-response-port           20                       # Cumulative packet size per connected requestor and responder (Byte)
system.iobus.pktSize_system.ruby.l1_cntrl3.sequencer.mem-request-port::total           20                       # Cumulative packet size per connected requestor and responder (Byte)
system.iobus.pktSize::total                        96                       # Cumulative packet size per connected requestor and responder (Byte)
system.iobus.power_state.pwrStateResidencyTicks::UNDEFINED 5150287570986                       # Cumulative time (in ticks) in various power states (Tick)
system.iobus.reqLayer15.occupancy               15706                       # Layer occupancy (ticks) (Tick)
system.iobus.reqLayer15.utilization               0.0                       # Layer utilization (Ratio)
system.iobus.reqLayer16.occupancy               15038                       # Layer occupancy (ticks) (Tick)
system.iobus.reqLayer16.utilization               0.0                       # Layer utilization (Ratio)
system.iobus.reqLayer17.occupancy               14517                       # Layer occupancy (ticks) (Tick)
system.iobus.reqLayer17.utilization               0.0                       # Layer utilization (Ratio)
system.iobus.reqLayer18.occupancy               15236                       # Layer occupancy (ticks) (Tick)
system.iobus.reqLayer18.utilization               0.0                       # Layer utilization (Ratio)
system.iobus.respLayer0.occupancy                6580                       # Layer occupancy (ticks) (Tick)
system.iobus.respLayer0.utilization               0.0                       # Layer utilization (Ratio)
system.iobus.respLayer3.occupancy                7500                       # Layer occupancy (ticks) (Tick)
system.iobus.respLayer3.utilization               0.0                       # Layer utilization (Ratio)
system.iobus.respLayer5.occupancy                7500                       # Layer occupancy (ticks) (Tick)
system.iobus.respLayer5.utilization               0.0                       # Layer utilization (Ratio)
system.iobus.respLayer7.occupancy                7500                       # Layer occupancy (ticks) (Tick)
system.iobus.respLayer7.utilization               0.0                       # Layer utilization (Ratio)
system.iobus.respLayer9.occupancy                7500                       # Layer occupancy (ticks) (Tick)
system.iobus.respLayer9.utilization               0.0                       # Layer utilization (Ratio)
system.mem_ctrls0.avgPriority_ruby.dir_cntrl0::samples      3350.00                       # Average QoS priority value for accepted requests (Count)
system.mem_ctrls0.priorityMinLatency     0.000000023300                       # per QoS priority minimum request to response latency (Second)
system.mem_ctrls0.priorityMaxLatency     0.000000142036                       # per QoS priority maximum request to response latency (Second)
system.mem_ctrls0.numReadWriteTurnArounds            0                       # Number of turnarounds from READ to WRITE (Count)
system.mem_ctrls0.numWriteReadTurnArounds            0                       # Number of turnarounds from WRITE to READ (Count)
system.mem_ctrls0.numStayReadState              18905                       # Number of times bus staying in READ state (Count)
system.mem_ctrls0.numStayWriteState                 0                       # Number of times bus staying in WRITE state (Count)
system.mem_ctrls0.readReqs                       1675                       # Number of read requests accepted (Count)
system.mem_ctrls0.writeReqs                         0                       # Number of write requests accepted (Count)
system.mem_ctrls0.readBursts                     3350                       # Number of controller read bursts, including those serviced by the write queue (Count)
system.mem_ctrls0.writeBursts                       0                       # Number of controller write bursts, including those merged in the write queue (Count)
system.mem_ctrls0.servicedByWrQ                     0                       # Number of controller read bursts serviced by the write queue (Count)
system.mem_ctrls0.mergedWrBursts                    0                       # Number of controller write bursts merged with an existing one (Count)
system.mem_ctrls0.neitherReadNorWriteReqs            0                       # Number of requests that are neither read nor write (Count)
system.mem_ctrls0.avgRdQLen                      2.00                       # Average read queue length when enqueuing ((Count/Tick))
system.mem_ctrls0.avgWrQLen                      0.00                       # Average write queue length when enqueuing ((Count/Tick))
system.mem_ctrls0.numRdRetry                        0                       # Number of times read queue was full causing retry (Count)
system.mem_ctrls0.numWrRetry                        0                       # Number of times write queue was full causing retry (Count)
system.mem_ctrls0.readPktSize::0                    0                       # Read request sizes (log2) (Count)
system.mem_ctrls0.readPktSize::1                    0                       # Read request sizes (log2) (Count)
system.mem_ctrls0.readPktSize::2                    0                       # Read request sizes (log2) (Count)
system.mem_ctrls0.readPktSize::3                    0                       # Read request sizes (log2) (Count)
system.mem_ctrls0.readPktSize::4                    0                       # Read request sizes (log2) (Count)
system.mem_ctrls0.readPktSize::5                 3350                       # Read request sizes (log2) (Count)
system.mem_ctrls0.readPktSize::6                    0                       # Read request sizes (log2) (Count)
system.mem_ctrls0.writePktSize::0                   0                       # Write request sizes (log2) (Count)
system.mem_ctrls0.writePktSize::1                   0                       # Write request sizes (log2) (Count)
system.mem_ctrls0.writePktSize::2                   0                       # Write request sizes (log2) (Count)
system.mem_ctrls0.writePktSize::3                   0                       # Write request sizes (log2) (Count)
system.mem_ctrls0.writePktSize::4                   0                       # Write request sizes (log2) (Count)
system.mem_ctrls0.writePktSize::5                   0                       # Write request sizes (log2) (Count)
system.mem_ctrls0.writePktSize::6                   0                       # Write request sizes (log2) (Count)
system.mem_ctrls0.rdQLenPdf::0                   1647                       # What read queue length does an incoming req see (Count)
system.mem_ctrls0.rdQLenPdf::1                   1648                       # What read queue length does an incoming req see (Count)
system.mem_ctrls0.rdQLenPdf::2                     28                       # What read queue length does an incoming req see (Count)
system.mem_ctrls0.rdQLenPdf::3                     27                       # What read queue length does an incoming req see (Count)
system.mem_ctrls0.rdQLenPdf::4                      0                       # What read queue length does an incoming req see (Count)
system.mem_ctrls0.rdQLenPdf::5                      0                       # What read queue length does an incoming req see (Count)
system.mem_ctrls0.rdQLenPdf::6                      0                       # What read queue length does an incoming req see (Count)
system.mem_ctrls0.rdQLenPdf::7                      0                       # What read queue length does an incoming req see (Count)
system.mem_ctrls0.rdQLenPdf::8                      0                       # What read queue length does an incoming req see (Count)
system.mem_ctrls0.rdQLenPdf::9                      0                       # What read queue length does an incoming req see (Count)
system.mem_ctrls0.rdQLenPdf::10                     0                       # What read queue length does an incoming req see (Count)
system.mem_ctrls0.rdQLenPdf::11                     0                       # What read queue length does an incoming req see (Count)
system.mem_ctrls0.rdQLenPdf::12                     0                       # What read queue length does an incoming req see (Count)
system.mem_ctrls0.rdQLenPdf::13                     0                       # What read queue length does an incoming req see (Count)
system.mem_ctrls0.rdQLenPdf::14                     0                       # What read queue length does an incoming req see (Count)
system.mem_ctrls0.rdQLenPdf::15                     0                       # What read queue length does an incoming req see (Count)
system.mem_ctrls0.rdQLenPdf::16                     0                       # What read queue length does an incoming req see (Count)
system.mem_ctrls0.rdQLenPdf::17                     0                       # What read queue length does an incoming req see (Count)
system.mem_ctrls0.rdQLenPdf::18                     0                       # What read queue length does an incoming req see (Count)
system.mem_ctrls0.rdQLenPdf::19                     0                       # What read queue length does an incoming req see (Count)
system.mem_ctrls0.rdQLenPdf::20                     0                       # What read queue length does an incoming req see (Count)
system.mem_ctrls0.rdQLenPdf::21                     0                       # What read queue length does an incoming req see (Count)
system.mem_ctrls0.rdQLenPdf::22                     0                       # What read queue length does an incoming req see (Count)
system.mem_ctrls0.rdQLenPdf::23                     0                       # What read queue length does an incoming req see (Count)
system.mem_ctrls0.rdQLenPdf::24                     0                       # What read queue length does an incoming req see (Count)
system.mem_ctrls0.rdQLenPdf::25                     0                       # What read queue length does an incoming req see (Count)
system.mem_ctrls0.rdQLenPdf::26                     0                       # What read queue length does an incoming req see (Count)
system.mem_ctrls0.rdQLenPdf::27                     0                       # What read queue length does an incoming req see (Count)
system.mem_ctrls0.rdQLenPdf::28                     0                       # What read queue length does an incoming req see (Count)
system.mem_ctrls0.rdQLenPdf::29                     0                       # What read queue length does an incoming req see (Count)
system.mem_ctrls0.rdQLenPdf::30                     0                       # What read queue length does an incoming req see (Count)
system.mem_ctrls0.rdQLenPdf::31                     0                       # What read queue length does an incoming req see (Count)
system.mem_ctrls0.wrQLenPdf::0                      0                       # What write queue length does an incoming req see (Count)
system.mem_ctrls0.wrQLenPdf::1                      0                       # What write queue length does an incoming req see (Count)
system.mem_ctrls0.wrQLenPdf::2                      0                       # What write queue length does an incoming req see (Count)
system.mem_ctrls0.wrQLenPdf::3                      0                       # What write queue length does an incoming req see (Count)
system.mem_ctrls0.wrQLenPdf::4                      0                       # What write queue length does an incoming req see (Count)
system.mem_ctrls0.wrQLenPdf::5                      0                       # What write queue length does an incoming req see (Count)
system.mem_ctrls0.wrQLenPdf::6                      0                       # What write queue length does an incoming req see (Count)
system.mem_ctrls0.wrQLenPdf::7                      0                       # What write queue length does an incoming req see (Count)
system.mem_ctrls0.wrQLenPdf::8                      0                       # What write queue length does an incoming req see (Count)
system.mem_ctrls0.wrQLenPdf::9                      0                       # What write queue length does an incoming req see (Count)
system.mem_ctrls0.wrQLenPdf::10                     0                       # What write queue length does an incoming req see (Count)
system.mem_ctrls0.wrQLenPdf::11                     0                       # What write queue length does an incoming req see (Count)
system.mem_ctrls0.wrQLenPdf::12                     0                       # What write queue length does an incoming req see (Count)
system.mem_ctrls0.wrQLenPdf::13                     0                       # What write queue length does an incoming req see (Count)
system.mem_ctrls0.wrQLenPdf::14                     0                       # What write queue length does an incoming req see (Count)
system.mem_ctrls0.wrQLenPdf::15                     0                       # What write queue length does an incoming req see (Count)
system.mem_ctrls0.wrQLenPdf::16                     0                       # What write queue length does an incoming req see (Count)
system.mem_ctrls0.wrQLenPdf::17                     0                       # What write queue length does an incoming req see (Count)
system.mem_ctrls0.wrQLenPdf::18                     0                       # What write queue length does an incoming req see (Count)
system.mem_ctrls0.wrQLenPdf::19                     0                       # What write queue length does an incoming req see (Count)
system.mem_ctrls0.wrQLenPdf::20                     0                       # What write queue length does an incoming req see (Count)
system.mem_ctrls0.wrQLenPdf::21                     0                       # What write queue length does an incoming req see (Count)
system.mem_ctrls0.wrQLenPdf::22                     0                       # What write queue length does an incoming req see (Count)
system.mem_ctrls0.wrQLenPdf::23                     0                       # What write queue length does an incoming req see (Count)
system.mem_ctrls0.wrQLenPdf::24                     0                       # What write queue length does an incoming req see (Count)
system.mem_ctrls0.wrQLenPdf::25                     0                       # What write queue length does an incoming req see (Count)
system.mem_ctrls0.wrQLenPdf::26                     0                       # What write queue length does an incoming req see (Count)
system.mem_ctrls0.wrQLenPdf::27                     0                       # What write queue length does an incoming req see (Count)
system.mem_ctrls0.wrQLenPdf::28                     0                       # What write queue length does an incoming req see (Count)
system.mem_ctrls0.wrQLenPdf::29                     0                       # What write queue length does an incoming req see (Count)
system.mem_ctrls0.wrQLenPdf::30                     0                       # What write queue length does an incoming req see (Count)
system.mem_ctrls0.wrQLenPdf::31                     0                       # What write queue length does an incoming req see (Count)
system.mem_ctrls0.bytesReadWrQ                      0                       # Total number of bytes read from write queue (Byte)
system.mem_ctrls0.bytesReadSys                 107200                       # Total read bytes from the system interface side (Byte)
system.mem_ctrls0.bytesWrittenSys                   0                       # Total written bytes from the system interface side (Byte)
system.mem_ctrls0.avgRdBWSys             7936522.83864104                       # Average system read bandwidth in Byte/s ((Byte/Second))
system.mem_ctrls0.avgWrBWSys               0.00000000                       # Average system write bandwidth in Byte/s ((Byte/Second))
system.mem_ctrls0.totGap                  12989134000                       # Total gap between requests (Tick)
system.mem_ctrls0.avgGap                   7754706.87                       # Average gap between requests ((Tick/Count))
system.mem_ctrls0.requestorReadBytes::ruby.dir_cntrl0       107200                       # Per-requestor bytes read from memory (Byte)
system.mem_ctrls0.requestorReadRate::ruby.dir_cntrl0 7936522.838641038164                       # Per-requestor bytes read from memory rate ((Byte/Second))
system.mem_ctrls0.requestorReadAccesses::ruby.dir_cntrl0         3350                       # Per-requestor read serviced memory accesses (Count)
system.mem_ctrls0.requestorReadTotalLat::ruby.dir_cntrl0     85072792                       # Per-requestor read total memory access latency (Tick)
system.mem_ctrls0.requestorReadAvgLat::ruby.dir_cntrl0     25394.86                       # Per-requestor read average memory access latency ((Tick/Count))
system.mem_ctrls0.dram.bytesRead::ruby.dir_cntrl0       107200                       # Number of bytes read from this memory (Byte)
system.mem_ctrls0.dram.bytesRead::total        107200                       # Number of bytes read from this memory (Byte)
[...]
system.ruby.network.data_traffic_distribution.n3.n7            0                       (Unspecified)
system.ruby.network.data_traffic_distribution.n3.n8            0                       (Unspecified)
system.ruby.network.data_traffic_distribution.n3.n9            0                       (Unspecified)
system.ruby.network.data_traffic_distribution.n4.n0            0                       (Unspecified)
system.ruby.network.data_traffic_distribution.n4.n1            0                       (Unspecified)
system.ruby.network.data_traffic_distribution.n4.n10            0                       (Unspecified)
system.ruby.network.data_traffic_distribution.n4.n11            0                       (Unspecified)
system.ruby.network.data_traffic_distribution.n4.n12            0                       (Unspecified)
system.ruby.network.data_traffic_distribution.n4.n13            0                       (Unspecified)
system.ruby.network.data_traffic_distribution.n4.n14            0                       (Unspecified)
system.ruby.network.data_traffic_distribution.n4.n15            0                       (Unspecified)
system.ruby.network.data_traffic_distribution.n4.n2            0                       (Unspecified)
system.ruby.network.data_traffic_distribution.n4.n3            0                       (Unspecified)
system.ruby.network.data_traffic_distribution.n4.n4            0                       (Unspecified)
system.ruby.network.data_traffic_distribution.n4.n5            0                       (Unspecified)
system.ruby.network.data_traffic_distribution.n4.n6            0                       (Unspecified)
system.ruby.network.data_traffic_distribution.n4.n7            0                       (Unspecified)
system.ruby.network.data_traffic_distribution.n4.n8            0                       (Unspecified)
system.ruby.network.data_traffic_distribution.n4.n9            0                       (Unspecified)
system.ruby.network.data_traffic_distribution.n5.n0            0                       (Unspecified)
system.ruby.network.data_traffic_distribution.n5.n1            0                       (Unspecified)
system.ruby.network.data_traffic_distribution.n5.n10            0                       (Unspecified)
system.ruby.network.data_traffic_distribution.n5.n11            0                       (Unspecified)
system.ruby.network.data_traffic_distribution.n5.n12            0                       (Unspecified)
system.ruby.network.data_traffic_distribution.n5.n13            0                       (Unspecified)
system.ruby.network.data_traffic_distribution.n5.n14            0                       (Unspecified)
system.ruby.network.data_traffic_distribution.n5.n15            0                       (Unspecified)
system.ruby.network.data_traffic_distribution.n5.n2            0                       (Unspecified)
system.ruby.network.data_traffic_distribution.n5.n3            0                       (Unspecified)
system.ruby.network.data_traffic_distribution.n5.n4            0                       (Unspecified)
system.ruby.network.data_traffic_distribution.n5.n5            0                       (Unspecified)
system.ruby.network.data_traffic_distribution.n5.n6            0                       (Unspecified)
system.ruby.network.data_traffic_distribution.n5.n7            0                       (Unspecified)
system.ruby.network.data_traffic_distribution.n5.n8            0                       (Unspecified)
system.ruby.network.data_traffic_distribution.n5.n9            0                       (Unspecified)
system.ruby.network.data_traffic_distribution.n6.n0            0                       (Unspecified)
system.ruby.network.data_traffic_distribution.n6.n1            0                       (Unspecified)
system.ruby.network.data_traffic_distribution.n6.n10            0                       (Unspecified)
system.ruby.network.data_traffic_distribution.n6.n11            0                       (Unspecified)
system.ruby.network.data_traffic_distribution.n6.n12            0                       (Unspecified)
system.ruby.network.data_traffic_distribution.n6.n13            0                       (Unspecified)
system.ruby.network.data_traffic_distribution.n6.n14            0                       (Unspecified)
system.ruby.network.data_traffic_distribution.n6.n15            0                       (Unspecified)
system.ruby.network.data_traffic_distribution.n6.n2            0                       (Unspecified)
system.ruby.network.data_traffic_distribution.n6.n3            0                       (Unspecified)
system.ruby.network.data_traffic_distribution.n6.n4            0                       (Unspecified)
system.ruby.network.data_traffic_distribution.n6.n5            0                       (Unspecified)
system.ruby.network.data_traffic_distribution.n6.n6            0                       (Unspecified)
system.ruby.network.data_traffic_distribution.n6.n7            0                       (Unspecified)
system.ruby.network.data_traffic_distribution.n6.n8            0                       (Unspecified)
system.ruby.network.data_traffic_distribution.n6.n9            0                       (Unspecified)
system.ruby.network.data_traffic_distribution.n7.n0            0                       (Unspecified)
system.ruby.network.data_traffic_distribution.n7.n1            0                       (Unspecified)
system.ruby.network.data_traffic_distribution.n7.n10            0                       (Unspecified)
system.ruby.network.data_traffic_distribution.n7.n11            0                       (Unspecified)
system.ruby.network.data_traffic_distribution.n7.n12            0                       (Unspecified)
system.ruby.network.data_traffic_distribution.n7.n13            0                       (Unspecified)
system.ruby.network.data_traffic_distribution.n7.n14            0                       (Unspecified)
system.ruby.network.data_traffic_distribution.n7.n15            0                       (Unspecified)
system.ruby.network.data_traffic_distribution.n7.n2            0                       (Unspecified)
system.ruby.network.data_traffic_distribution.n7.n3            0                       (Unspecified)
system.ruby.network.data_traffic_distribution.n7.n4            0                       (Unspecified)
system.ruby.network.data_traffic_distribution.n7.n5            0                       (Unspecified)
system.ruby.network.data_traffic_distribution.n7.n6            0                       (Unspecified)
system.ruby.network.data_traffic_distribution.n7.n7            0                       (Unspecified)
system.ruby.network.data_traffic_distribution.n7.n8            0                       (Unspecified)
system.ruby.network.data_traffic_distribution.n7.n9            0                       (Unspecified)
system.ruby.network.data_traffic_distribution.n8.n0            0                       (Unspecified)
system.ruby.network.data_traffic_distribution.n8.n1            0                       (Unspecified)
system.ruby.network.data_traffic_distribution.n8.n10            0                       (Unspecified)
system.ruby.network.data_traffic_distribution.n8.n11            0                       (Unspecified)
system.ruby.network.data_traffic_distribution.n8.n12            0                       (Unspecified)
system.ruby.network.data_traffic_distribution.n8.n13            0                       (Unspecified)
system.ruby.network.data_traffic_distribution.n8.n14            0                       (Unspecified)
system.ruby.network.data_traffic_distribution.n8.n15            0                       (Unspecified)
system.ruby.network.data_traffic_distribution.n8.n2            0                       (Unspecified)
system.ruby.network.data_traffic_distribution.n8.n3            0                       (Unspecified)
system.ruby.network.data_traffic_distribution.n8.n4            0                       (Unspecified)
system.ruby.network.data_traffic_distribution.n8.n5            0                       (Unspecified)
system.ruby.network.data_traffic_distribution.n8.n6            0                       (Unspecified)
system.ruby.network.data_traffic_distribution.n8.n7            0                       (Unspecified)
system.ruby.network.data_traffic_distribution.n8.n8            0                       (Unspecified)
system.ruby.network.data_traffic_distribution.n8.n9            0                       (Unspecified)
system.ruby.network.data_traffic_distribution.n9.n0            0                       (Unspecified)
system.ruby.network.data_traffic_distribution.n9.n1            0                       (Unspecified)
system.ruby.network.data_traffic_distribution.n9.n10            0                       (Unspecified)
system.ruby.network.data_traffic_distribution.n9.n11            0                       (Unspecified)
system.ruby.network.data_traffic_distribution.n9.n12            0                       (Unspecified)
system.ruby.network.data_traffic_distribution.n9.n13            0                       (Unspecified)
system.ruby.network.data_traffic_distribution.n9.n14            0                       (Unspecified)
system.ruby.network.data_traffic_distribution.n9.n15            0                       (Unspecified)
system.ruby.network.data_traffic_distribution.n9.n2            0                       (Unspecified)
system.ruby.network.data_traffic_distribution.n9.n3            0                       (Unspecified)
system.ruby.network.data_traffic_distribution.n9.n4            0                       (Unspecified)
system.ruby.network.data_traffic_distribution.n9.n5            0                       (Unspecified)
system.ruby.network.data_traffic_distribution.n9.n6            0                       (Unspecified)
system.ruby.network.data_traffic_distribution.n9.n7            0                       (Unspecified)
system.ruby.network.data_traffic_distribution.n9.n8            0                       (Unspecified)
system.ruby.network.data_traffic_distribution.n9.n9            0                       (Unspecified)
system.ruby.network.ext_in_link_utilization      4441331                       (Unspecified)
system.ruby.network.ext_out_link_utilization      4441332                       (Unspecified)
system.ruby.network.flit_network_latency |  9227675000                       |   246458500                       | 11942409000                       (Unspecified)
system.ruby.network.flit_queueing_latency |   658844443                       |    13425500                       |  4851057080                       (Unspecified)
system.ruby.network.flits_injected       |      973842     43.85%     43.85% |       26851      1.21%     45.06% |     1219976     54.94%    100.00% (Unspecified)
system.ruby.network.flits_injected::total      2220669                       (Unspecified)
system.ruby.network.flits_received       |      973842     43.85%     43.85% |       26851      1.21%     45.06% |     1219977     54.94%    100.00% (Unspecified)
system.ruby.network.flits_received::total      2220670                       (Unspecified)
system.ruby.network.int_link_utilization     10147078                       (Unspecified)
system.ruby.network.packet_network_latency |  7455572500                       |   246458500                       |  9197562000                       (Unspecified)
system.ruby.network.packet_queueing_latency |   551239018                       |    13425500                       |  2581601108                       (Unspecified)
system.ruby.network.packets_injected     |      768541     45.04%     45.04% |       26851      1.57%     46.62% |      910908     53.38%    100.00% (Unspecified)
system.ruby.network.packets_injected::total      1706300                       (Unspecified)
system.ruby.network.packets_received     |      768541     45.04%     45.04% |       26851      1.57%     46.61% |      910909     53.39%    100.00% (Unspecified)
system.ruby.network.packets_received::total      1706301                       (Unspecified)
system.ruby.network.routers00.buffer_reads      1953428                       (Unspecified)
system.ruby.network.routers00.buffer_writes      1953428                       (Unspecified)
system.ruby.network.routers00.crossbar_activity       976714                       (Unspecified)
system.ruby.network.routers00.sw_input_arbiter_activity       979771                       (Unspecified)
system.ruby.network.routers00.sw_output_arbiter_activity       976714                       (Unspecified)
system.ruby.network.routers01.buffer_reads       566092                       (Unspecified)
system.ruby.network.routers01.buffer_writes       566092                       (Unspecified)
system.ruby.network.routers01.crossbar_activity       283046                       (Unspecified)
system.ruby.network.routers01.sw_input_arbiter_activity       283064                       (Unspecified)
system.ruby.network.routers01.sw_output_arbiter_activity       283046                       (Unspecified)
system.ruby.network.routers02.buffer_reads       588242                       (Unspecified)
system.ruby.network.routers02.buffer_writes       588242                       (Unspecified)
system.ruby.network.routers02.crossbar_activity       294121                       (Unspecified)
system.ruby.network.routers02.sw_input_arbiter_activity       294135                       (Unspecified)
system.ruby.network.routers02.sw_output_arbiter_activity       294121                       (Unspecified)
system.ruby.network.routers03.buffer_reads       590658                       (Unspecified)
system.ruby.network.routers03.buffer_writes       590658                       (Unspecified)
system.ruby.network.routers03.crossbar_activity       295329                       (Unspecified)
system.ruby.network.routers03.sw_input_arbiter_activity       295339                       (Unspecified)
system.ruby.network.routers03.sw_output_arbiter_activity       295329                       (Unspecified)
system.ruby.network.routers04.buffer_reads       566148                       (Unspecified)
system.ruby.network.routers04.buffer_writes       566148                       (Unspecified)
system.ruby.network.routers04.crossbar_activity       283074                       (Unspecified)
system.ruby.network.routers04.sw_input_arbiter_activity       283087                       (Unspecified)
system.ruby.network.routers04.sw_output_arbiter_activity       283074                       (Unspecified)
system.ruby.network.routers05.buffer_reads      1897187                       (Unspecified)
system.ruby.network.routers05.buffer_writes      1897187                       (Unspecified)
system.ruby.network.routers05.crossbar_activity       948596                       (Unspecified)
system.ruby.network.routers05.sw_input_arbiter_activity       952029                       (Unspecified)
system.ruby.network.routers05.sw_output_arbiter_activity       948596                       (Unspecified)
system.ruby.network.routers06.buffer_reads       559420                       (Unspecified)
system.ruby.network.routers06.buffer_writes       559420                       (Unspecified)
system.ruby.network.routers06.crossbar_activity       279711                       (Unspecified)
system.ruby.network.routers06.sw_input_arbiter_activity       279729                       (Unspecified)
system.ruby.network.routers06.sw_output_arbiter_activity       279711                       (Unspecified)
system.ruby.network.routers07.buffer_reads       577316                       (Unspecified)
system.ruby.network.routers07.buffer_writes       577316                       (Unspecified)
system.ruby.network.routers07.crossbar_activity       288661                       (Unspecified)
system.ruby.network.routers07.sw_input_arbiter_activity       288683                       (Unspecified)
system.ruby.network.routers07.sw_output_arbiter_activity       288661                       (Unspecified)
system.ruby.network.routers08.buffer_reads       588090                       (Unspecified)
system.ruby.network.routers08.buffer_writes       588090                       (Unspecified)
system.ruby.network.routers08.crossbar_activity       294045                       (Unspecified)
system.ruby.network.routers08.sw_input_arbiter_activity       294057                       (Unspecified)
system.ruby.network.routers08.sw_output_arbiter_activity       294045                       (Unspecified)
system.ruby.network.routers09.buffer_reads       559348                       (Unspecified)
system.ruby.network.routers09.buffer_writes       559348                       (Unspecified)
system.ruby.network.routers09.crossbar_activity       279675                       (Unspecified)
system.ruby.network.routers09.sw_input_arbiter_activity       279691                       (Unspecified)
system.ruby.network.routers09.sw_output_arbiter_activity       279675                       (Unspecified)
system.ruby.network.routers10.buffer_reads      1910154                       (Unspecified)
system.ruby.network.routers10.buffer_writes      1910154                       (Unspecified)
system.ruby.network.routers10.crossbar_activity       955078                       (Unspecified)
system.ruby.network.routers10.sw_input_arbiter_activity       958123                       (Unspecified)
system.ruby.network.routers10.sw_output_arbiter_activity       955078                       (Unspecified)
system.ruby.network.routers11.buffer_reads       563218                       (Unspecified)
system.ruby.network.routers11.buffer_writes       563218                       (Unspecified)
system.ruby.network.routers11.crossbar_activity       281609                       (Unspecified)
system.ruby.network.routers11.sw_input_arbiter_activity       281635                       (Unspecified)
system.ruby.network.routers11.sw_output_arbiter_activity       281609                       (Unspecified)
system.ruby.network.routers12.buffer_reads       590432                       (Unspecified)
system.ruby.network.routers12.buffer_writes       590432                       (Unspecified)
system.ruby.network.routers12.crossbar_activity       295216                       (Unspecified)
system.ruby.network.routers12.sw_input_arbiter_activity       295232                       (Unspecified)
system.ruby.network.routers12.sw_output_arbiter_activity       295216                       (Unspecified)
system.ruby.network.routers13.buffer_reads       577228                       (Unspecified)
system.ruby.network.routers13.buffer_writes       577228                       (Unspecified)
system.ruby.network.routers13.crossbar_activity       288617                       (Unspecified)
system.ruby.network.routers13.sw_input_arbiter_activity       288629                       (Unspecified)
system.ruby.network.routers13.sw_output_arbiter_activity       288617                       (Unspecified)
system.ruby.network.routers14.buffer_reads       563194                       (Unspecified)
system.ruby.network.routers14.buffer_writes       563194                       (Unspecified)
system.ruby.network.routers14.crossbar_activity       281597                       (Unspecified)
system.ruby.network.routers14.sw_input_arbiter_activity       281621                       (Unspecified)
system.ruby.network.routers14.sw_output_arbiter_activity       281597                       (Unspecified)
system.ruby.network.routers15.buffer_reads      1938254                       (Unspecified)
system.ruby.network.routers15.buffer_writes      1938254                       (Unspecified)
system.ruby.network.routers15.crossbar_activity       969130                       (Unspecified)
system.ruby.network.routers15.sw_input_arbiter_activity       972215                       (Unspecified)
system.ruby.network.routers15.sw_output_arbiter_activity       969130                       (Unspecified)

---------- End Simulation Statistics   ----------
