
---------- Begin Simulation Statistics ----------
simSeconds                                   0.014994                       # Number of seconds simulated (Second)
simTicks                                  14993576414                       # Number of ticks simulated (Tick)
finalTick                                5021439308892                       # Number of ticks from beginning of simulation (restored from checkpoints and never reset) (Tick)
simFreq                                  1000000000000                       # The number of ticks per simulated second ((Tick/Second))
hostSeconds                                    527.18                       # Real time elapsed on the host (Second)
hostTickRate                                 28441216                       # The number of ticks simulated per host second (ticks/s) ((Tick/Second))
hostMemory                                    1141496                       # Number of bytes of host memory used (Byte)
simInsts                                     42260942                       # Number of instructions simulated (Count)
simOps                                       67376816                       # Number of ops (including micro ops) simulated (Count)
hostInstRate                                    80164                       # Simulator instruction rate (inst/s) ((Count/Second))
hostOpRate                                     127807                       # Simulator op (including micro ops) rate (op/s) ((Count/Second))
system.clk_domain.clock                          1000                       # Clock period in ticks (Tick)
system.cpu0.numCycles                        45025756                       # Number of cpu cycles simulated (Cycle)
system.cpu0.numWorkItemsStarted                     0                       # Number of work items this cpu started (Count)
system.cpu0.numWorkItemsCompleted                   0                       # Number of work items this cpu completed (Count)
system.cpu0.exec_context.thread_0.numInsts      8993469                       # Number of instructions committed (Count)
system.cpu0.exec_context.thread_0.numOps     13908301                       # Number of ops (including micro ops) committed (Count)
system.cpu0.exec_context.thread_0.numIntAluAccesses      9085042                       # Number of integer alu accesses (Count)
system.cpu0.exec_context.thread_0.numFpAluAccesses      7473360                       # Number of float alu accesses (Count)
system.cpu0.exec_context.thread_0.numVecAluAccesses            0                       # Number of vector alu accesses (Count)
system.cpu0.exec_context.thread_0.numCallsReturns         6510                       # Number of times a function call or return occured (Count)
system.cpu0.exec_context.thread_0.numCondCtrlInsts       445694                       # Number of instructions that are conditional controls (Count)
system.cpu0.exec_context.thread_0.numIntInsts      9085042                       # Number of integer instructions (Count)
system.cpu0.exec_context.thread_0.numFpInsts      7473360                       # Number of float instructions (Count)
system.cpu0.exec_context.thread_0.numVecInsts            0                       # Number of vector instructions (Count)
system.cpu0.exec_context.thread_0.numIntRegReads     13588303                       # Number of times the integer registers were read (Count)
system.cpu0.exec_context.thread_0.numIntRegWrites      5177773                       # Number of times the integer registers were written (Count)
system.cpu0.exec_context.thread_0.numFpRegReads     10971380                       # Number of times the floating registers were read (Count)
system.cpu0.exec_context.thread_0.numFpRegWrites      6710080                       # Number of times the floating registers were written (Count)
system.cpu0.exec_context.thread_0.numVecRegReads            0                       # Number of times the vector registers were read (Count)
system.cpu0.exec_context.thread_0.numVecRegWrites            0                       # Number of times the vector registers were written (Count)
system.cpu0.exec_context.thread_0.numVecPredRegReads            0                       # Number of times the predicate registers were read (Count)
system.cpu0.exec_context.thread_0.numVecPredRegWrites            0                       # Number of times the predicate registers were written (Count)
system.cpu0.exec_context.thread_0.numCCRegReads      2419316                       # Number of times the CC registers were read (Count)
system.cpu0.exec_context.thread_0.numCCRegWrites      2888589                       # Number of times the CC registers were written (Count)
system.cpu0.exec_context.thread_0.numMiscRegReads      4680632                       # Number of times the Misc registers were read (Count)
system.cpu0.exec_context.thread_0.numMiscRegWrites         3804                       # Number of times the Misc registers were written (Count)
system.cpu0.exec_context.thread_0.numMemRefs      3424433                       # Number of memory refs (Count)
system.cpu0.exec_context.thread_0.numLoadInsts      2498659                       # Number of load instructions (Count)
system.cpu0.exec_context.thread_0.numStoreInsts       925774                       # Number of store instructions (Count)
system.cpu0.exec_context.thread_0.numIdleCycles            0                       # Number of idle cycles (Cycle)
system.cpu0.exec_context.thread_0.numBusyCycles     45025756                       # Number of busy cycles (Cycle)
system.cpu0.exec_context.thread_0.notIdleFraction            1                       # Percentage of non-idle cycles (Ratio)
system.cpu0.exec_context.thread_0.idleFraction            0                       # Percentage of idle cycles (Ratio)
system.cpu0.exec_context.thread_0.numBranches       617676                       # Number of branches fetched (Count)
system.cpu0.exec_context.thread_0.statExecutedInstType::No_OpClass          348      0.00%      0.00% # Class of executed instruction. (Count)
system.cpu0.exec_context.thread_0.statExecutedInstType::IntAlu      6949480     49.97%     49.97% # Class of executed instruction. (Count)
system.cpu0.exec_context.thread_0.statExecutedInstType::IntMult         4161      0.03%     50.00% # Class of executed instruction. (Count)
system.cpu0.exec_context.thread_0.statExecutedInstType::IntDiv         1330      0.01%     50.01% # Class of executed instruction. (Count)
system.cpu0.exec_context.thread_0.statExecutedInstType::FloatAdd       907330      6.52%     56.53% # Class of executed instruction. (Count)
system.cpu0.exec_context.thread_0.statExecutedInstType::FloatCmp            0      0.00%     56.53% # Class of executed instruction. (Count)
system.cpu0.exec_context.thread_0.statExecutedInstType::FloatCvt            0      0.00%     56.53% # Class of executed instruction. (Count)
system.cpu0.exec_context.thread_0.statExecutedInstType::FloatMult            0      0.00%     56.53% # Class of executed instruction. (Count)
system.cpu0.exec_context.thread_0.statExecutedInstType::FloatMultAcc            0      0.00%     56.53% # Class of executed instruction. (Count)
system.cpu0.exec_context.thread_0.statExecutedInstType::FloatDiv            0      0.00%     56.53% # Class of executed instruction. (Count)
system.cpu0.exec_context.thread_0.statExecutedInstType::FloatMisc            0      0.00%     56.53% # Class of executed instruction. (Count)
system.cpu0.exec_context.thread_0.statExecutedInstType::FloatSqrt            0      0.00%     56.53% # Class of executed instruction. (Count)
system.cpu0.exec_context.thread_0.statExecutedInstType::SimdAdd            0      0.00%     56.53% # Class of executed instruction. (Count)
system.cpu0.exec_context.thread_0.statExecutedInstType::SimdAddAcc            0      0.00%     56.53% # Class of executed instruction. (Count)
system.cpu0.exec_context.thread_0.statExecutedInstType::SimdAlu        72000      0.52%     57.05% # Class of executed instruction. (Count)
system.cpu0.exec_context.thread_0.statExecutedInstType::SimdCmp            0      0.00%     57.05% # Class of executed instruction. (Count)
system.cpu0.exec_context.thread_0.statExecutedInstType::SimdCvt            0      0.00%     57.05% # Class of executed instruction. (Count)
system.cpu0.exec_context.thread_0.statExecutedInstType::SimdMisc            0      0.00%     57.05% # Class of executed instruction. (Count)
system.cpu0.exec_context.thread_0.statExecutedInstType::SimdMult            0      0.00%     57.05% # Class of executed instruction. (Count)
system.cpu0.exec_context.thread_0.statExecutedInstType::SimdMultAcc            0      0.00%     57.05% # Class of executed instruction. (Count)
system.cpu0.exec_context.thread_0.statExecutedInstType::SimdShift            0      0.00%     57.05% # Class of executed instruction. (Count)
system.cpu0.exec_context.thread_0.statExecutedInstType::SimdShiftAcc            0      0.00%     57.05% # Class of executed instruction. (Count)
system.cpu0.exec_context.thread_0.statExecutedInstType::SimdDiv            0      0.00%     57.05% # Class of executed instruction. (Count)
system.cpu0.exec_context.thread_0.statExecutedInstType::SimdSqrt            0      0.00%     57.05% # Class of executed instruction. (Count)
system.cpu0.exec_context.thread_0.statExecutedInstType::SimdFloatAdd      1193360      8.58%     65.63% # Class of executed instruction. (Count)
system.cpu0.exec_context.thread_0.statExecutedInstType::SimdFloatAlu            0      0.00%     65.63% # Class of executed instruction. (Count)
system.cpu0.exec_context.thread_0.statExecutedInstType::SimdFloatCmp            0      0.00%     65.63% # Class of executed instruction. (Count)
system.cpu0.exec_context.thread_0.statExecutedInstType::SimdFloatCvt        54000      0.39%     66.02% # Class of executed instruction. (Count)
system.cpu0.exec_context.thread_0.statExecutedInstType::SimdFloatDiv        42720      0.31%     66.33% # Class of executed instruction. (Count)
system.cpu0.exec_context.thread_0.statExecutedInstType::SimdFloatMisc            0      0.00%     66.33% # Class of executed instruction. (Count)
system.cpu0.exec_context.thread_0.statExecutedInstType::SimdFloatMult      1254820      9.02%     75.35% # Class of executed instruction. (Count)
system.cpu0.exec_context.thread_0.statExecutedInstType::SimdFloatMultAcc            0      0.00%     75.35% # Class of executed instruction. (Count)
system.cpu0.exec_context.thread_0.statExecutedInstType::SimdFloatSqrt         4320      0.03%     75.38% # Class of executed instruction. (Count)
system.cpu0.exec_context.thread_0.statExecutedInstType::SimdReduceAdd            0      0.00%     75.38% # Class of executed instruction. (Count)
system.cpu0.exec_context.thread_0.statExecutedInstType::SimdReduceAlu            0      0.00%     75.38% # Class of executed instruction. (Count)
system.cpu0.exec_context.thread_0.statExecutedInstType::SimdReduceCmp            0      0.00%     75.38% # Class of executed instruction. (Count)
system.cpu0.exec_context.thread_0.statExecutedInstType::SimdFloatReduceAdd            0      0.00%     75.38% # Class of executed instruction. (Count)
system.cpu0.exec_context.thread_0.statExecutedInstType::SimdFloatReduceCmp            0      0.00%     75.38% # Class of executed instruction. (Count)
system.cpu0.exec_context.thread_0.statExecutedInstType::SimdAes            0      0.00%     75.38% # Class of executed instruction. (Count)
system.cpu0.exec_context.thread_0.statExecutedInstType::SimdAesMix            0      0.00%     75.38% # Class of executed instruction. (Count)
system.cpu0.exec_context.thread_0.statExecutedInstType::SimdSha1Hash            0      0.00%     75.38% # Class of executed instruction. (Count)
system.cpu0.exec_context.thread_0.statExecutedInstType::SimdSha1Hash2            0      0.00%     75.38% # Class of executed instruction. (Count)
system.cpu0.exec_context.thread_0.statExecutedInstType::SimdSha256Hash            0      0.00%     75.38% # Class of executed instruction. (Count)
system.cpu0.exec_context.thread_0.statExecutedInstType::SimdSha256Hash2            0      0.00%     75.38% # Class of executed instruction. (Count)
system.cpu0.exec_context.thread_0.statExecutedInstType::SimdShaSigma2            0      0.00%     75.38% # Class of executed instruction. (Count)
system.cpu0.exec_context.thread_0.statExecutedInstType::SimdShaSigma3            0      0.00%     75.38% # Class of executed instruction. (Count)
system.cpu0.exec_context.thread_0.statExecutedInstType::SimdPredAlu            0      0.00%     75.38% # Class of executed instruction. (Count)
system.cpu0.exec_context.thread_0.statExecutedInstType::MemRead       527509      3.79%     79.17% # Class of executed instruction. (Count)
system.cpu0.exec_context.thread_0.statExecutedInstType::MemWrite       216494      1.56%     80.73% # Class of executed instruction. (Count)
system.cpu0.exec_context.thread_0.statExecutedInstType::FloatMemRead      1971150     14.17%     94.90% # Class of executed instruction. (Count)
system.cpu0.exec_context.thread_0.statExecutedInstType::FloatMemWrite       709280      5.10%    100.00% # Class of executed instruction. (Count)
system.cpu0.exec_context.thread_0.statExecutedInstType::IprAccess            0      0.00%    100.00% # Class of executed instruction. (Count)
system.cpu0.exec_context.thread_0.statExecutedInstType::InstPrefetch            0      0.00%    100.00% # Class of executed instruction. (Count)
system.cpu0.exec_context.thread_0.statExecutedInstType::total     13908302                       # Class of executed instruction. (Count)
system.cpu0.interrupts.clk_domain.clock          5328                       # Clock period in ticks (Tick)
system.cpu0.mmu.dtb.rdAccesses                2499273                       # TLB accesses on read requests (Count)
system.cpu0.mmu.dtb.wrAccesses                 925917                       # TLB accesses on write requests (Count)
system.cpu0.mmu.dtb.rdMisses                      616                       # TLB misses on read requests (Count)
system.cpu0.mmu.dtb.wrMisses                      143                       # TLB misses on write requests (Count)
system.cpu0.mmu.dtb.walker.power_state.pwrStateResidencyTicks::UNDEFINED 5021439308892                       # Cumulative time (in ticks) in various power states (Tick)
system.cpu0.mmu.itb.rdAccesses                      0                       # TLB accesses on read requests (Count)
system.cpu0.mmu.itb.wrAccesses               13365242                       # TLB accesses on write requests (Count)
system.cpu0.mmu.itb.rdMisses                        0                       # TLB misses on read requests (Count)
system.cpu0.mmu.itb.wrMisses                        0                       # TLB misses on write requests (Count)
system.cpu0.mmu.itb.walker.power_state.pwrStateResidencyTicks::UNDEFINED 5021439308892                       # Cumulative time (in ticks) in various power states (Tick)
system.cpu0.power_state.pwrStateResidencyTicks::ON  16940070972                       # Cumulative time (in ticks) in various power states (Tick)
system.cpu0.thread_0.numInsts                       0                       # Number of Instructions committed (Count)
system.cpu0.thread_0.numOps                         0                       # Number of Ops committed (Count)
system.cpu0.thread_0.numMemRefs                     0                       # Number of Memory References (Count)
system.cpu1.numCycles                        45025756                       # Number of cpu cycles simulated (Cycle)
system.cpu1.numWorkItemsStarted                     0                       # Number of work items this cpu started (Count)
system.cpu1.numWorkItemsCompleted                   0                       # Number of work items this cpu completed (Count)
system.cpu1.exec_context.thread_0.numInsts      9367331                       # Number of instructions committed (Count)
system.cpu1.exec_context.thread_0.numOps     14547801                       # Number of ops (including micro ops) committed (Count)
system.cpu1.exec_context.thread_0.numIntAluAccesses      9656061                       # Number of integer alu accesses (Count)
system.cpu1.exec_context.thread_0.numFpAluAccesses      7473360                       # Number of float alu accesses (Count)
system.cpu1.exec_context.thread_0.numVecAluAccesses            0                       # Number of vector alu accesses (Count)
system.cpu1.exec_context.thread_0.numCallsReturns         1798                       # Number of times a function call or return occured (Count)
system.cpu1.exec_context.thread_0.numCondCtrlInsts       576103                       # Number of instructions that are conditional controls (Count)
system.cpu1.exec_context.thread_0.numIntInsts      9656061                       # Number of integer instructions (Count)
system.cpu1.exec_context.thread_0.numFpInsts      7473360                       # Number of float instructions (Count)
system.cpu1.exec_context.thread_0.numVecInsts            0                       # Number of vector instructions (Count)
system.cpu1.exec_context.thread_0.numIntRegReads     14083408                       # Number of times the integer registers were read (Count)
system.cpu1.exec_context.thread_0.numIntRegWrites      5524792                       # Number of times the integer registers were written (Count)
system.cpu1.exec_context.thread_0.numFpRegReads     10971380                       # Number of times the floating registers were read (Count)
system.cpu1.exec_context.thread_0.numFpRegWrites      6710080                       # Number of times the floating registers were written (Count)
system.cpu1.exec_context.thread_0.numVecRegReads            0                       # Number of times the vector registers were read (Count)
system.cpu1.exec_context.thread_0.numVecRegWrites            0                       # Number of times the vector registers were written (Count)
system.cpu1.exec_context.thread_0.numVecPredRegReads            0                       # Number of times the predicate registers were read (Count)
system.cpu1.exec_context.thread_0.numVecPredRegWrites            0                       # Number of times the predicate registers were written (Count)
system.cpu1.exec_context.thread_0.numCCRegReads      3043939                       # Number of times the CC registers were read (Count)
system.cpu1.exec_context.thread_0.numCCRegWrites      3237174                       # Number of times the CC registers were written (Count)
system.cpu1.exec_context.thread_0.numMiscRegReads      4944751                       # Number of times the Misc registers were read (Count)
system.cpu1.exec_context.thread_0.numMiscRegWrites          481                       # Number of times the Misc registers were written (Count)
system.cpu1.exec_context.thread_0.numMemRefs      3440506                       # Number of memory refs (Count)
system.cpu1.exec_context.thread_0.numLoadInsts      2542544                       # Number of load instructions (Count)
system.cpu1.exec_context.thread_0.numStoreInsts       897962                       # Number of store instructions (Count)
system.cpu1.exec_context.thread_0.numIdleCycles            0                       # Number of idle cycles (Cycle)
system.cpu1.exec_context.thread_0.numBusyCycles     45025756                       # Number of busy cycles (Cycle)
system.cpu1.exec_context.thread_0.notIdleFraction            1                       # Percentage of non-idle cycles (Ratio)
system.cpu1.exec_context.thread_0.idleFraction            0                       # Percentage of idle cycles (Ratio)
system.cpu1.exec_context.thread_0.numBranches       741746                       # Number of branches fetched (Count)
system.cpu1.exec_context.thread_0.statExecutedInstType::No_OpClass          250      0.00%      0.00% # Class of executed instruction. (Count)
system.cpu1.exec_context.thread_0.statExecutedInstType::IntAlu      7572986     52.06%     52.06% # Class of executed instruction. (Count)
system.cpu1.exec_context.thread_0.statExecutedInstType::IntMult         4165      0.03%     52.09% # Class of executed instruction. (Count)
system.cpu1.exec_context.thread_0.statExecutedInstType::IntDiv         1345      0.01%     52.10% # Class of executed instruction. (Count)
system.cpu1.exec_context.thread_0.statExecutedInstType::FloatAdd       907330      6.24%     58.33% # Class of executed instruction. (Count)
system.cpu1.exec_context.thread_0.statExecutedInstType::FloatCmp            0      0.00%     58.33% # Class of executed instruction. (Count)
system.cpu1.exec_context.thread_0.statExecutedInstType::FloatCvt            0      0.00%     58.33% # Class of executed instruction. (Count)
system.cpu1.exec_context.thread_0.statExecutedInstType::FloatMult            0      0.00%     58.33% # Class of executed instruction. (Count)
system.cpu1.exec_context.thread_0.statExecutedInstType::FloatMultAcc            0      0.00%     58.33% # Class of executed instruction. (Count)
system.cpu1.exec_context.thread_0.statExecutedInstType::FloatDiv            0      0.00%     58.33% # Class of executed instruction. (Count)
system.cpu1.exec_context.thread_0.statExecutedInstType::FloatMisc            0      0.00%     58.33% # Class of executed instruction. (Count)
system.cpu1.exec_context.thread_0.statExecutedInstType::FloatSqrt            0      0.00%     58.33% # Class of executed instruction. (Count)
system.cpu1.exec_context.thread_0.statExecutedInstType::SimdAdd            0      0.00%     58.33% # Class of executed instruction. (Count)
system.cpu1.exec_context.thread_0.statExecutedInstType::SimdAddAcc            0      0.00%     58.33% # Class of executed instruction. (Count)
system.cpu1.exec_context.thread_0.statExecutedInstType::SimdAlu        72000      0.49%     58.83% # Class of executed instruction. (Count)
system.cpu1.exec_context.thread_0.statExecutedInstType::SimdCmp            0      0.00%     58.83% # Class of executed instruction. (Count)
system.cpu1.exec_context.thread_0.statExecutedInstType::SimdCvt            0      0.00%     58.83% # Class of executed instruction. (Count)
system.cpu1.exec_context.thread_0.statExecutedInstType::SimdMisc            0      0.00%     58.83% # Class of executed instruction. (Count)
system.cpu1.exec_context.thread_0.statExecutedInstType::SimdMult            0      0.00%     58.83% # Class of executed instruction. (Count)
system.cpu1.exec_context.thread_0.statExecutedInstType::SimdMultAcc            0      0.00%     58.83% # Class of executed instruction. (Count)
system.cpu1.exec_context.thread_0.statExecutedInstType::SimdShift            0      0.00%     58.83% # Class of executed instruction. (Count)
system.cpu1.exec_context.thread_0.statExecutedInstType::SimdShiftAcc            0      0.00%     58.83% # Class of executed instruction. (Count)
system.cpu1.exec_context.thread_0.statExecutedInstType::SimdDiv            0      0.00%     58.83% # Class of executed instruction. (Count)
system.cpu1.exec_context.thread_0.statExecutedInstType::SimdSqrt            0      0.00%     58.83% # Class of executed instruction. (Count)
system.cpu1.exec_context.thread_0.statExecutedInstType::SimdFloatAdd      1193360      8.20%     67.03% # Class of executed instruction. (Count)
system.cpu1.exec_context.thread_0.statExecutedInstType::SimdFloatAlu            0      0.00%     67.03% # Class of executed instruction. (Count)
system.cpu1.exec_context.thread_0.statExecutedInstType::SimdFloatCmp            0      0.00%     67.03% # Class of executed instruction. (Count)
system.cpu1.exec_context.thread_0.statExecutedInstType::SimdFloatCvt        54000      0.37%     67.40% # Class of executed instruction. (Count)
system.cpu1.exec_context.thread_0.statExecutedInstType::SimdFloatDiv        42720      0.29%     67.70% # Class of executed instruction. (Count)
system.cpu1.exec_context.thread_0.statExecutedInstType::SimdFloatMisc            0      0.00%     67.70% # Class of executed instruction. (Count)
system.cpu1.exec_context.thread_0.statExecutedInstType::SimdFloatMult      1254820      8.63%     76.32% # Class of executed instruction. (Count)
system.cpu1.exec_context.thread_0.statExecutedInstType::SimdFloatMultAcc            0      0.00%     76.32% # Class of executed instruction. (Count)
system.cpu1.exec_context.thread_0.statExecutedInstType::SimdFloatSqrt         4320      0.03%     76.35% # Class of executed instruction. (Count)
system.cpu1.exec_context.thread_0.statExecutedInstType::SimdReduceAdd            0      0.00%     76.35% # Class of executed instruction. (Count)
system.cpu1.exec_context.thread_0.statExecutedInstType::SimdReduceAlu            0      0.00%     76.35% # Class of executed instruction. (Count)
system.cpu1.exec_context.thread_0.statExecutedInstType::SimdReduceCmp            0      0.00%     76.35% # Class of executed instruction. (Count)
system.cpu1.exec_context.thread_0.statExecutedInstType::SimdFloatReduceAdd            0      0.00%     76.35% # Class of executed instruction. (Count)
system.cpu1.exec_context.thread_0.statExecutedInstType::SimdFloatReduceCmp            0      0.00%     76.35% # Class of executed instruction. (Count)
system.cpu1.exec_context.thread_0.statExecutedInstType::SimdAes            0      0.00%     76.35% # Class of executed instruction. (Count)
system.cpu1.exec_context.thread_0.statExecutedInstType::SimdAesMix            0      0.00%     76.35% # Class of executed instruction. (Count)
system.cpu1.exec_context.thread_0.statExecutedInstType::SimdSha1Hash            0      0.00%     76.35% # Class of executed instruction. (Count)
system.cpu1.exec_context.thread_0.statExecutedInstType::SimdSha1Hash2            0      0.00%     76.35% # Class of executed instruction. (Count)
system.cpu1.exec_context.thread_0.statExecutedInstType::SimdSha256Hash            0      0.00%     76.35% # Class of executed instruction. (Count)
system.cpu1.exec_context.thread_0.statExecutedInstType::SimdSha256Hash2            0      0.00%     76.35% # Class of executed instruction. (Count)
system.cpu1.exec_context.thread_0.statExecutedInstType::SimdShaSigma2            0      0.00%     76.35% # Class of executed instruction. (Count)
system.cpu1.exec_context.thread_0.statExecutedInstType::SimdShaSigma3            0      0.00%     76.35% # Class of executed instruction. (Count)
system.cpu1.exec_context.thread_0.statExecutedInstType::SimdPredAlu            0      0.00%     76.35% # Class of executed instruction. (Count)
system.cpu1.exec_context.thread_0.statExecutedInstType::MemRead       571394      3.93%     80.28% # Class of executed instruction. (Count)
system.cpu1.exec_context.thread_0.statExecutedInstType::MemWrite       188682      1.30%     81.58% # Class of executed instruction. (Count)
system.cpu1.exec_context.thread_0.statExecutedInstType::FloatMemRead      1971150     13.55%     95.12% # Class of executed instruction. (Count)
system.cpu1.exec_context.thread_0.statExecutedInstType::FloatMemWrite       709280      4.88%    100.00% # Class of executed instruction. (Count)
system.cpu1.exec_context.thread_0.statExecutedInstType::IprAccess            0      0.00%    100.00% # Class of executed instruction. (Count)
system.cpu1.exec_context.thread_0.statExecutedInstType::InstPrefetch            0      0.00%    100.00% # Class of executed instruction. (Count)
system.cpu1.exec_context.thread_0.statExecutedInstType::total     14547802                       # Class of executed instruction. (Count)
system.cpu1.interrupts.clk_domain.clock          5328                       # Clock period in ticks (Tick)
system.cpu1.mmu.dtb.rdAccesses                2542988                       # TLB accesses on read requests (Count)
system.cpu1.mmu.dtb.wrAccesses                 898050                       # TLB accesses on write requests (Count)
system.cpu1.mmu.dtb.rdMisses                      445                       # TLB misses on read requests (Count)
system.cpu1.mmu.dtb.wrMisses                       88                       # TLB misses on write requests (Count)
system.cpu1.mmu.dtb.walker.power_state.pwrStateResidencyTicks::UNDEFINED 5021439308892                       # Cumulative time (in ticks) in various power states (Tick)
system.cpu1.mmu.itb.rdAccesses                      0                       # TLB accesses on read requests (Count)
system.cpu1.mmu.itb.wrAccesses               13768497                       # TLB accesses on write requests (Count)
system.cpu1.mmu.itb.rdMisses                        0                       # TLB misses on read requests (Count)
system.cpu1.mmu.itb.wrMisses                        0                       # TLB misses on write requests (Count)
system.cpu1.mmu.itb.walker.power_state.pwrStateResidencyTicks::UNDEFINED 5021439308892                       # Cumulative time (in ticks) in various power states (Tick)
system.cpu1.power_state.pwrStateResidencyTicks::ON  20941303068                       # Cumulative time (in ticks) in various power states (Tick)
system.cpu1.thread_0.numInsts                       0                       # Number of Instructions committed (Count)
system.cpu1.thread_0.numOps                         0                       # Number of Ops committed (Count)
system.cpu1.thread_0.numMemRefs                     0                       # Number of Memory References (Count)
system.cpu2.numCycles                        45025754                       # Number of cpu cycles simulated (Cycle)
system.cpu2.numWorkItemsStarted                     0                       # Number of work items this cpu started (Count)
system.cpu2.numWorkItemsCompleted                   0                       # Number of work items this cpu completed (Count)
system.cpu2.exec_context.thread_0.numInsts     14354828                       # Number of instructions committed (Count)
system.cpu2.exec_context.thread_0.numOps     24070656                       # Number of ops (including micro ops) committed (Count)
system.cpu2.exec_context.thread_0.numIntAluAccesses     20838776                       # Number of integer alu accesses (Count)
system.cpu2.exec_context.thread_0.numFpAluAccesses      2536580                       # Number of float alu accesses (Count)
system.cpu2.exec_context.thread_0.numVecAluAccesses            0                       # Number of vector alu accesses (Count)
system.cpu2.exec_context.thread_0.numCallsReturns         1704                       # Number of times a function call or return occured (Count)
system.cpu2.exec_context.thread_0.numCondCtrlInsts      3362405                       # Number of instructions that are conditional controls (Count)
system.cpu2.exec_context.thread_0.numIntInsts     20838776                       # Number of integer instructions (Count)
system.cpu2.exec_context.thread_0.numFpInsts      2536580                       # Number of float instructions (Count)
system.cpu2.exec_context.thread_0.numVecInsts            0                       # Number of vector instructions (Count)
system.cpu2.exec_context.thread_0.numIntRegReads     22431416                       # Number of times the integer registers were read (Count)
system.cpu2.exec_context.thread_0.numIntRegWrites     13074964                       # Number of times the integer registers were written (Count)
system.cpu2.exec_context.thread_0.numFpRegReads      3702540                       # Number of times the floating registers were read (Count)
system.cpu2.exec_context.thread_0.numFpRegWrites      2265140                       # Number of times the floating registers were written (Count)
system.cpu2.exec_context.thread_0.numVecRegReads            0                       # Number of times the vector registers were read (Count)
system.cpu2.exec_context.thread_0.numVecRegWrites            0                       # Number of times the vector registers were written (Count)
system.cpu2.exec_context.thread_0.numVecPredRegReads            0                       # Number of times the predicate registers were read (Count)
system.cpu2.exec_context.thread_0.numVecPredRegWrites            0                       # Number of times the predicate registers were written (Count)
system.cpu2.exec_context.thread_0.numCCRegReads     16881847                       # Number of times the CC registers were read (Count)
system.cpu2.exec_context.thread_0.numCCRegWrites     10640786                       # Number of times the CC registers were written (Count)
system.cpu2.exec_context.thread_0.numMiscRegReads      9642383                       # Number of times the Misc registers were read (Count)
system.cpu2.exec_context.thread_0.numMiscRegWrites          377                       # Number of times the Misc registers were written (Count)
system.cpu2.exec_context.thread_0.numMemRefs      2782022                       # Number of memory refs (Count)
system.cpu2.exec_context.thread_0.numLoadInsts      2447905                       # Number of load instructions (Count)
system.cpu2.exec_context.thread_0.numStoreInsts       334117                       # Number of store instructions (Count)
system.cpu2.exec_context.thread_0.numIdleCycles            0                       # Number of idle cycles (Cycle)
system.cpu2.exec_context.thread_0.numBusyCycles     45025754                       # Number of busy cycles (Cycle)
system.cpu2.exec_context.thread_0.notIdleFraction            1                       # Percentage of non-idle cycles (Ratio)
system.cpu2.exec_context.thread_0.idleFraction            0                       # Percentage of idle cycles (Ratio)
system.cpu2.exec_context.thread_0.numBranches      3426410                       # Number of branches fetched (Count)
system.cpu2.exec_context.thread_0.statExecutedInstType::No_OpClass          255      0.00%      0.00% # Class of executed instruction. (Count)
system.cpu2.exec_context.thread_0.statExecutedInstType::IntAlu     20075646     83.40%     83.40% # Class of executed instruction. (Count)
system.cpu2.exec_context.thread_0.statExecutedInstType::IntMult         1799      0.01%     83.41% # Class of executed instruction. (Count)
system.cpu2.exec_context.thread_0.statExecutedInstType::IntDiv         1356      0.01%     83.42% # Class of executed instruction. (Count)
system.cpu2.exec_context.thread_0.statExecutedInstType::FloatAdd       319760      1.33%     84.75% # Class of executed instruction. (Count)
system.cpu2.exec_context.thread_0.statExecutedInstType::FloatCmp            0      0.00%     84.75% # Class of executed instruction. (Count)
system.cpu2.exec_context.thread_0.statExecutedInstType::FloatCvt            0      0.00%     84.75% # Class of executed instruction. (Count)
system.cpu2.exec_context.thread_0.statExecutedInstType::FloatMult            0      0.00%     84.75% # Class of executed instruction. (Count)
system.cpu2.exec_context.thread_0.statExecutedInstType::FloatMultAcc            0      0.00%     84.75% # Class of executed instruction. (Count)
system.cpu2.exec_context.thread_0.statExecutedInstType::FloatDiv            0      0.00%     84.75% # Class of executed instruction. (Count)
system.cpu2.exec_context.thread_0.statExecutedInstType::FloatMisc            0      0.00%     84.75% # Class of executed instruction. (Count)
system.cpu2.exec_context.thread_0.statExecutedInstType::FloatSqrt            0      0.00%     84.75% # Class of executed instruction. (Count)
system.cpu2.exec_context.thread_0.statExecutedInstType::SimdAdd            0      0.00%     84.75% # Class of executed instruction. (Count)
system.cpu2.exec_context.thread_0.statExecutedInstType::SimdAddAcc            0      0.00%     84.75% # Class of executed instruction. (Count)
system.cpu2.exec_context.thread_0.statExecutedInstType::SimdAlu        24000      0.10%     84.85% # Class of executed instruction. (Count)
system.cpu2.exec_context.thread_0.statExecutedInstType::SimdCmp            0      0.00%     84.85% # Class of executed instruction. (Count)
system.cpu2.exec_context.thread_0.statExecutedInstType::SimdCvt            0      0.00%     84.85% # Class of executed instruction. (Count)
system.cpu2.exec_context.thread_0.statExecutedInstType::SimdMisc            0      0.00%     84.85% # Class of executed instruction. (Count)
system.cpu2.exec_context.thread_0.statExecutedInstType::SimdMult            0      0.00%     84.85% # Class of executed instruction. (Count)
system.cpu2.exec_context.thread_0.statExecutedInstType::SimdMultAcc            0      0.00%     84.85% # Class of executed instruction. (Count)
system.cpu2.exec_context.thread_0.statExecutedInstType::SimdShift            0      0.00%     84.85% # Class of executed instruction. (Count)
system.cpu2.exec_context.thread_0.statExecutedInstType::SimdShiftAcc            0      0.00%     84.85% # Class of executed instruction. (Count)
system.cpu2.exec_context.thread_0.statExecutedInstType::SimdDiv            0      0.00%     84.85% # Class of executed instruction. (Count)
system.cpu2.exec_context.thread_0.statExecutedInstType::SimdSqrt            0      0.00%     84.85% # Class of executed instruction. (Count)
system.cpu2.exec_context.thread_0.statExecutedInstType::SimdFloatAdd       389760      1.62%     86.46% # Class of executed instruction. (Count)
system.cpu2.exec_context.thread_0.statExecutedInstType::SimdFloatAlu            0      0.00%     86.46% # Class of executed instruction. (Count)
system.cpu2.exec_context.thread_0.statExecutedInstType::SimdFloatCmp            0      0.00%     86.46% # Class of executed instruction. (Count)
system.cpu2.exec_context.thread_0.statExecutedInstType::SimdFloatCvt        18000      0.07%     86.54% # Class of executed instruction. (Count)
system.cpu2.exec_context.thread_0.statExecutedInstType::SimdFloatDiv        17120      0.07%     86.61% # Class of executed instruction. (Count)
system.cpu2.exec_context.thread_0.statExecutedInstType::SimdFloatMisc            0      0.00%     86.61% # Class of executed instruction. (Count)
system.cpu2.exec_context.thread_0.statExecutedInstType::SimdFloatMult       436620      1.81%     88.42% # Class of executed instruction. (Count)
system.cpu2.exec_context.thread_0.statExecutedInstType::SimdFloatMultAcc            0      0.00%     88.42% # Class of executed instruction. (Count)
system.cpu2.exec_context.thread_0.statExecutedInstType::SimdFloatSqrt         4320      0.02%     88.44% # Class of executed instruction. (Count)
system.cpu2.exec_context.thread_0.statExecutedInstType::SimdReduceAdd            0      0.00%     88.44% # Class of executed instruction. (Count)
system.cpu2.exec_context.thread_0.statExecutedInstType::SimdReduceAlu            0      0.00%     88.44% # Class of executed instruction. (Count)
system.cpu2.exec_context.thread_0.statExecutedInstType::SimdReduceCmp            0      0.00%     88.44% # Class of executed instruction. (Count)
system.cpu2.exec_context.thread_0.statExecutedInstType::SimdFloatReduceAdd            0      0.00%     88.44% # Class of executed instruction. (Count)
system.cpu2.exec_context.thread_0.statExecutedInstType::SimdFloatReduceCmp            0      0.00%     88.44% # Class of executed instruction. (Count)
system.cpu2.exec_context.thread_0.statExecutedInstType::SimdAes            0      0.00%     88.44% # Class of executed instruction. (Count)
system.cpu2.exec_context.thread_0.statExecutedInstType::SimdAesMix            0      0.00%     88.44% # Class of executed instruction. (Count)
system.cpu2.exec_context.thread_0.statExecutedInstType::SimdSha1Hash            0      0.00%     88.44% # Class of executed instruction. (Count)
system.cpu2.exec_context.thread_0.statExecutedInstType::SimdSha1Hash2            0      0.00%     88.44% # Class of executed instruction. (Count)
system.cpu2.exec_context.thread_0.statExecutedInstType::SimdSha256Hash            0      0.00%     88.44% # Class of executed instruction. (Count)
system.cpu2.exec_context.thread_0.statExecutedInstType::SimdSha256Hash2            0      0.00%     88.44% # Class of executed instruction. (Count)
system.cpu2.exec_context.thread_0.statExecutedInstType::SimdShaSigma2            0      0.00%     88.44% # Class of executed instruction. (Count)
system.cpu2.exec_context.thread_0.statExecutedInstType::SimdShaSigma3            0      0.00%     88.44% # Class of executed instruction. (Count)
system.cpu2.exec_context.thread_0.statExecutedInstType::SimdPredAlu            0      0.00%     88.44% # Class of executed instruction. (Count)
system.cpu2.exec_context.thread_0.statExecutedInstType::MemRead      1787325      7.43%     95.87% # Class of executed instruction. (Count)
system.cpu2.exec_context.thread_0.statExecutedInstType::MemWrite        80677      0.34%     96.20% # Class of executed instruction. (Count)
system.cpu2.exec_context.thread_0.statExecutedInstType::FloatMemRead       660580      2.74%     98.95% # Class of executed instruction. (Count)
system.cpu2.exec_context.thread_0.statExecutedInstType::FloatMemWrite       253440      1.05%    100.00% # Class of executed instruction. (Count)
system.cpu2.exec_context.thread_0.statExecutedInstType::IprAccess            0      0.00%    100.00% # Class of executed instruction. (Count)
system.cpu2.exec_context.thread_0.statExecutedInstType::InstPrefetch            0      0.00%    100.00% # Class of executed instruction. (Count)
system.cpu2.exec_context.thread_0.statExecutedInstType::total     24070658                       # Class of executed instruction. (Count)
system.cpu2.interrupts.clk_domain.clock          5328                       # Clock period in ticks (Tick)
system.cpu2.mmu.dtb.rdAccesses                2448125                       # TLB accesses on read requests (Count)
system.cpu2.mmu.dtb.wrAccesses                 334147                       # TLB accesses on write requests (Count)
system.cpu2.mmu.dtb.rdMisses                      223                       # TLB misses on read requests (Count)
system.cpu2.mmu.dtb.wrMisses                       31                       # TLB misses on write requests (Count)
system.cpu2.mmu.dtb.walker.power_state.pwrStateResidencyTicks::UNDEFINED 5021439308892                       # Cumulative time (in ticks) in various power states (Tick)
system.cpu2.mmu.itb.rdAccesses                      0                       # TLB accesses on read requests (Count)
system.cpu2.mmu.itb.wrAccesses               17458209                       # TLB accesses on write requests (Count)
system.cpu2.mmu.itb.rdMisses                        0                       # TLB misses on read requests (Count)
system.cpu2.mmu.itb.wrMisses                        0                       # TLB misses on write requests (Count)
system.cpu2.mmu.itb.walker.power_state.pwrStateResidencyTicks::UNDEFINED 5021439308892                       # Cumulative time (in ticks) in various power states (Tick)
system.cpu2.power_state.pwrStateResidencyTicks::ON  20942533836                       # Cumulative time (in ticks) in various power states (Tick)
system.cpu2.thread_0.numInsts                       0                       # Number of Instructions committed (Count)
system.cpu2.thread_0.numOps                         0                       # Number of Ops committed (Count)
system.cpu2.thread_0.numMemRefs                     0                       # Number of Memory References (Count)
system.cpu3.numCycles                        45025756                       # Number of cpu cycles simulated (Cycle)
system.cpu3.numWorkItemsStarted                     0                       # Number of work items this cpu started (Count)
system.cpu3.numWorkItemsCompleted                   0                       # Number of work items this cpu completed (Count)
system.cpu3.exec_context.thread_0.numInsts      9545137                       # Number of instructions committed (Count)
system.cpu3.exec_context.thread_0.numOps     14849753                       # Number of ops (including micro ops) committed (Count)
system.cpu3.exec_context.thread_0.numIntAluAccesses      9933451                       # Number of integer alu accesses (Count)
system.cpu3.exec_context.thread_0.numFpAluAccesses      7473360                       # Number of float alu accesses (Count)
system.cpu3.exec_context.thread_0.numVecAluAccesses            0                       # Number of vector alu accesses (Count)
system.cpu3.exec_context.thread_0.numCallsReturns         1976                       # Number of times a function call or return occured (Count)
system.cpu3.exec_context.thread_0.numCondCtrlInsts       624972                       # Number of instructions that are conditional controls (Count)
system.cpu3.exec_context.thread_0.numIntInsts      9933451                       # Number of integer instructions (Count)
system.cpu3.exec_context.thread_0.numFpInsts      7473360                       # Number of float instructions (Count)
system.cpu3.exec_context.thread_0.numVecInsts            0                       # Number of vector instructions (Count)
system.cpu3.exec_context.thread_0.numIntRegReads     14367250                       # Number of times the integer registers were read (Count)
system.cpu3.exec_context.thread_0.numIntRegWrites      5702509                       # Number of times the integer registers were written (Count)
system.cpu3.exec_context.thread_0.numFpRegReads     10971380                       # Number of times the floating registers were read (Count)
system.cpu3.exec_context.thread_0.numFpRegWrites      6710080                       # Number of times the floating registers were written (Count)
system.cpu3.exec_context.thread_0.numVecRegReads            0                       # Number of times the vector registers were read (Count)
system.cpu3.exec_context.thread_0.numVecRegWrites            0                       # Number of times the vector registers were written (Count)
system.cpu3.exec_context.thread_0.numVecPredRegReads            0                       # Number of times the predicate registers were read (Count)
system.cpu3.exec_context.thread_0.numVecPredRegWrites            0                       # Number of times the predicate registers were written (Count)
system.cpu3.exec_context.thread_0.numCCRegReads      3290186                       # Number of times the CC registers were read (Count)
system.cpu3.exec_context.thread_0.numCCRegWrites      3390796                       # Number of times the CC registers were written (Count)
system.cpu3.exec_context.thread_0.numMiscRegReads      5068923                       # Number of times the Misc registers were read (Count)
system.cpu3.exec_context.thread_0.numMiscRegWrites         1123                       # Number of times the Misc registers were written (Count)
system.cpu3.exec_context.thread_0.numMemRefs      3466689                       # Number of memory refs (Count)
system.cpu3.exec_context.thread_0.numLoadInsts      2567616                       # Number of load instructions (Count)
system.cpu3.exec_context.thread_0.numStoreInsts       899073                       # Number of store instructions (Count)
system.cpu3.exec_context.thread_0.numIdleCycles            0                       # Number of idle cycles (Cycle)
system.cpu3.exec_context.thread_0.numBusyCycles     45025756                       # Number of busy cycles (Cycle)
system.cpu3.exec_context.thread_0.notIdleFraction            1                       # Percentage of non-idle cycles (Ratio)
system.cpu3.exec_context.thread_0.idleFraction            0                       # Percentage of idle cycles (Ratio)
system.cpu3.exec_context.thread_0.numBranches       790779                       # Number of branches fetched (Count)
system.cpu3.exec_context.thread_0.statExecutedInstType::No_OpClass          198      0.00%      0.00% # Class of executed instruction. (Count)
system.cpu3.exec_context.thread_0.statExecutedInstType::IntAlu      7848829     52.85%     52.86% # Class of executed instruction. (Count)
system.cpu3.exec_context.thread_0.statExecutedInstType::IntMult         4158      0.03%     52.88% # Class of executed instruction. (Count)
system.cpu3.exec_context.thread_0.statExecutedInstType::IntDiv         1330      0.01%     52.89% # Class of executed instruction. (Count)
system.cpu3.exec_context.thread_0.statExecutedInstType::FloatAdd       907330      6.11%     59.00% # Class of executed instruction. (Count)
system.cpu3.exec_context.thread_0.statExecutedInstType::FloatCmp            0      0.00%     59.00% # Class of executed instruction. (Count)
system.cpu3.exec_context.thread_0.statExecutedInstType::FloatCvt            0      0.00%     59.00% # Class of executed instruction. (Count)
system.cpu3.exec_context.thread_0.statExecutedInstType::FloatMult            0      0.00%     59.00% # Class of executed instruction. (Count)
system.cpu3.exec_context.thread_0.statExecutedInstType::FloatMultAcc            0      0.00%     59.00% # Class of executed instruction. (Count)
system.cpu3.exec_context.thread_0.statExecutedInstType::FloatDiv            0      0.00%     59.00% # Class of executed instruction. (Count)
system.cpu3.exec_context.thread_0.statExecutedInstType::FloatMisc            0      0.00%     59.00% # Class of executed instruction. (Count)
system.cpu3.exec_context.thread_0.statExecutedInstType::FloatSqrt            0      0.00%     59.00% # Class of executed instruction. (Count)
system.cpu3.exec_context.thread_0.statExecutedInstType::SimdAdd            0      0.00%     59.00% # Class of executed instruction. (Count)
system.cpu3.exec_context.thread_0.statExecutedInstType::SimdAddAcc            0      0.00%     59.00% # Class of executed instruction. (Count)
system.cpu3.exec_context.thread_0.statExecutedInstType::SimdAlu        72000      0.48%     59.49% # Class of executed instruction. (Count)
system.cpu3.exec_context.thread_0.statExecutedInstType::SimdCmp            0      0.00%     59.49% # Class of executed instruction. (Count)
system.cpu3.exec_context.thread_0.statExecutedInstType::SimdCvt            0      0.00%     59.49% # Class of executed instruction. (Count)
system.cpu3.exec_context.thread_0.statExecutedInstType::SimdMisc            0      0.00%     59.49% # Class of executed instruction. (Count)
system.cpu3.exec_context.thread_0.statExecutedInstType::SimdMult            0      0.00%     59.49% # Class of executed instruction. (Count)
system.cpu3.exec_context.thread_0.statExecutedInstType::SimdMultAcc            0      0.00%     59.49% # Class of executed instruction. (Count)
system.cpu3.exec_context.thread_0.statExecutedInstType::SimdShift            0      0.00%     59.49% # Class of executed instruction. (Count)
system.cpu3.exec_context.thread_0.statExecutedInstType::SimdShiftAcc            0      0.00%     59.49% # Class of executed instruction. (Count)
system.cpu3.exec_context.thread_0.statExecutedInstType::SimdDiv            0      0.00%     59.49% # Class of executed instruction. (Count)
system.cpu3.exec_context.thread_0.statExecutedInstType::SimdSqrt            0      0.00%     59.49% # Class of executed instruction. (Count)
system.cpu3.exec_context.thread_0.statExecutedInstType::SimdFloatAdd      1193360      8.04%     67.52% # Class of executed instruction. (Count)
system.cpu3.exec_context.thread_0.statExecutedInstType::SimdFloatAlu            0      0.00%     67.52% # Class of executed instruction. (Count)
system.cpu3.exec_context.thread_0.statExecutedInstType::SimdFloatCmp            0      0.00%     67.52% # Class of executed instruction. (Count)
system.cpu3.exec_context.thread_0.statExecutedInstType::SimdFloatCvt        54000      0.36%     67.89% # Class of executed instruction. (Count)
system.cpu3.exec_context.thread_0.statExecutedInstType::SimdFloatDiv        42720      0.29%     68.18% # Class of executed instruction. (Count)
system.cpu3.exec_context.thread_0.statExecutedInstType::SimdFloatMisc            0      0.00%     68.18% # Class of executed instruction. (Count)
system.cpu3.exec_context.thread_0.statExecutedInstType::SimdFloatMult      1254820      8.45%     76.63% # Class of executed instruction. (Count)
system.cpu3.exec_context.thread_0.statExecutedInstType::SimdFloatMultAcc            0      0.00%     76.63% # Class of executed instruction. (Count)
system.cpu3.exec_context.thread_0.statExecutedInstType::SimdFloatSqrt         4320      0.03%     76.65% # Class of executed instruction. (Count)
system.cpu3.exec_context.thread_0.statExecutedInstType::SimdReduceAdd            0      0.00%     76.65% # Class of executed instruction. (Count)
system.cpu3.exec_context.thread_0.statExecutedInstType::SimdReduceAlu            0      0.00%     76.65% # Class of executed instruction. (Count)
system.cpu3.exec_context.thread_0.statExecutedInstType::SimdReduceCmp            0      0.00%     76.65% # Class of executed instruction. (Count)
system.cpu3.exec_context.thread_0.statExecutedInstType::SimdFloatReduceAdd            0      0.00%     76.65% # Class of executed instruction. (Count)
system.cpu3.exec_context.thread_0.statExecutedInstType::SimdFloatReduceCmp            0      0.00%     76.65% # Class of executed instruction. (Count)
system.cpu3.exec_context.thread_0.statExecutedInstType::SimdAes            0      0.00%     76.65% # Class of executed instruction. (Count)
system.cpu3.exec_context.thread_0.statExecutedInstType::SimdAesMix            0      0.00%     76.65% # Class of executed instruction. (Count)
system.cpu3.exec_context.thread_0.statExecutedInstType::SimdSha1Hash            0      0.00%     76.65% # Class of executed instruction. (Count)
system.cpu3.exec_context.thread_0.statExecutedInstType::SimdSha1Hash2            0      0.00%     76.65% # Class of executed instruction. (Count)
system.cpu3.exec_context.thread_0.statExecutedInstType::SimdSha256Hash            0      0.00%     76.65% # Class of executed instruction. (Count)
system.cpu3.exec_context.thread_0.statExecutedInstType::SimdSha256Hash2            0      0.00%     76.65% # Class of executed instruction. (Count)
system.cpu3.exec_context.thread_0.statExecutedInstType::SimdShaSigma2            0      0.00%     76.65% # Class of executed instruction. (Count)
system.cpu3.exec_context.thread_0.statExecutedInstType::SimdShaSigma3            0      0.00%     76.65% # Class of executed instruction. (Count)
system.cpu3.exec_context.thread_0.statExecutedInstType::SimdPredAlu            0      0.00%     76.65% # Class of executed instruction. (Count)
system.cpu3.exec_context.thread_0.statExecutedInstType::MemRead       596466      4.02%     80.67% # Class of executed instruction. (Count)
system.cpu3.exec_context.thread_0.statExecutedInstType::MemWrite       189793      1.28%     81.95% # Class of executed instruction. (Count)
system.cpu3.exec_context.thread_0.statExecutedInstType::FloatMemRead      1971150     13.27%     95.22% # Class of executed instruction. (Count)
system.cpu3.exec_context.thread_0.statExecutedInstType::FloatMemWrite       709280      4.78%    100.00% # Class of executed instruction. (Count)
system.cpu3.exec_context.thread_0.statExecutedInstType::IprAccess            0      0.00%    100.00% # Class of executed instruction. (Count)
system.cpu3.exec_context.thread_0.statExecutedInstType::InstPrefetch            0      0.00%    100.00% # Class of executed instruction. (Count)
system.cpu3.exec_context.thread_0.statExecutedInstType::total     14849754                       # Class of executed instruction. (Count)
system.cpu3.interrupts.clk_domain.clock          5328                       # Clock period in ticks (Tick)
system.cpu3.mmu.dtb.rdAccesses                2568186                       # TLB accesses on read requests (Count)
system.cpu3.mmu.dtb.wrAccesses                 899192                       # TLB accesses on write requests (Count)
system.cpu3.mmu.dtb.rdMisses                      572                       # TLB misses on read requests (Count)
system.cpu3.mmu.dtb.wrMisses                      119                       # TLB misses on write requests (Count)
system.cpu3.mmu.dtb.walker.power_state.pwrStateResidencyTicks::UNDEFINED 5021439308892                       # Cumulative time (in ticks) in various power states (Tick)
system.cpu3.mmu.itb.rdAccesses                      0                       # TLB accesses on read requests (Count)
system.cpu3.mmu.itb.wrAccesses               13972582                       # TLB accesses on write requests (Count)
system.cpu3.mmu.itb.rdMisses                        0                       # TLB misses on read requests (Count)
system.cpu3.mmu.itb.wrMisses                        0                       # TLB misses on write requests (Count)
system.cpu3.mmu.itb.walker.power_state.pwrStateResidencyTicks::UNDEFINED 5021439308892                       # Cumulative time (in ticks) in various power states (Tick)
system.cpu3.power_state.pwrStateResidencyTicks::ON  22436948919                       # Cumulative time (in ticks) in various power states (Tick)
system.cpu3.thread_0.numInsts                       0                       # Number of Instructions committed (Count)
system.cpu3.thread_0.numOps                         0                       # Number of Ops committed (Count)
system.cpu3.thread_0.numMemRefs                     0                       # Number of Memory References (Count)
system.cpu_clk_domain.clock                       333                       # Clock period in ticks (Tick)
system.cpu_voltage_domain.voltage                   1                       # Voltage in Volts (Volt)
system.iobus.transDist::WriteReq                   24                       # Transaction distribution (Count)
system.iobus.transDist::WriteResp                  24                       # Transaction distribution (Count)
system.iobus.pktCount_system.pc.south_bridge.io_apic.int_request::system.ruby.l1_cntrl0.sequencer.pio-response-port            2                       # Packet count per connected requestor and responder (Count)
system.iobus.pktCount_system.pc.south_bridge.io_apic.int_request::system.ruby.l1_cntrl1.sequencer.pio-response-port            2                       # Packet count per connected requestor and responder (Count)
system.iobus.pktCount_system.pc.south_bridge.io_apic.int_request::system.ruby.l1_cntrl2.sequencer.pio-response-port            2                       # Packet count per connected requestor and responder (Count)
system.iobus.pktCount_system.pc.south_bridge.io_apic.int_request::system.ruby.l1_cntrl3.sequencer.pio-response-port            2                       # Packet count per connected requestor and responder (Count)
system.iobus.pktCount_system.pc.south_bridge.io_apic.int_request::total            8                       # Packet count per connected requestor and responder (Count)
system.iobus.pktCount_system.ruby.l1_cntrl0.sequencer.mem-request-port::system.ruby.l1_cntrl0.sequencer.pio-response-port           10                       # Packet count per connected requestor and responder (Count)
system.iobus.pktCount_system.ruby.l1_cntrl0.sequencer.mem-request-port::total           10                       # Packet count per connected requestor and responder (Count)
system.iobus.pktCount_system.ruby.l1_cntrl1.sequencer.mem-request-port::system.ruby.l1_cntrl1.sequencer.pio-response-port           10                       # Packet count per connected requestor and responder (Count)
system.iobus.pktCount_system.ruby.l1_cntrl1.sequencer.mem-request-port::total           10                       # Packet count per connected requestor and responder (Count)
system.iobus.pktCount_system.ruby.l1_cntrl2.sequencer.mem-request-port::system.ruby.l1_cntrl2.sequencer.pio-response-port           10                       # Packet count per connected requestor and responder (Count)
system.iobus.pktCount_system.ruby.l1_cntrl2.sequencer.mem-request-port::total           10                       # Packet count per connected requestor and responder (Count)
system.iobus.pktCount_system.ruby.l1_cntrl3.sequencer.mem-request-port::system.ruby.l1_cntrl3.sequencer.pio-response-port           10                       # Packet count per connected requestor and responder (Count)
system.iobus.pktCount_system.ruby.l1_cntrl3.sequencer.mem-request-port::total           10                       # Packet count per connected requestor and responder (Count)
system.iobus.pktCount::total                       48                       # Packet count per connected requestor and responder (Count)
system.iobus.pktSize_system.pc.south_bridge.io_apic.int_request::system.ruby.l1_cntrl0.sequencer.pio-response-port            4                       # Cumulative packet size per connected requestor and responder (Byte)
system.iobus.pktSize_system.pc.south_bridge.io_apic.int_request::system.ruby.l1_cntrl1.sequencer.pio-response-port            4                       # Cumulative packet size per connected requestor and responder (Byte)
system.iobus.pktSize_system.pc.south_bridge.io_apic.int_request::system.ruby.l1_cntrl2.sequencer.pio-response-port            4                       # Cumulative packet size per connected requestor and responder (Byte)
system.iobus.pktSize_system.pc.south_bridge.io_apic.int_request::system.ruby.l1_cntrl3.sequencer.pio-response-port            4                       # Cumulative packet size per connected requestor and responder (Byte)
system.iobus.pktSize_system.pc.south_bridge.io_apic.int_request::total           16                       # Cumulative packet size per connected requestor and responder (Byte)
system.iobus.pktSize_system.ruby.l1_cntrl0.sequencer.mem-request-port::system.ruby.l1_cntrl0.sequencer.pio-response-port           20                       # Cumulative packet size per connected requestor and responder (Byte)
system.iobus.pktSize_system.ruby.l1_cntrl0.sequencer.mem-request-port::total           20                       # Cumulative packet size per connected requestor and responder (Byte)
system.iobus.pktSize_system.ruby.l1_cntrl1.sequencer.mem-request-port::system.ruby.l1_cntrl1.sequencer.pio-response-port           20                       # Cumulative packet size per connected requestor and responder (Byte)
system.iobus.pktSize_system.ruby.l1_cntrl1.sequencer.mem-request-port::total           20                       # Cumulative packet size per connected requestor and responder (Byte)
system.iobus.pktSize_system.ruby.l1_cntrl2.sequencer.mem-request-port::system.ruby.l1_cntrl2.sequencer.pio-response-port           20                       # Cumulative packet size per connected requestor and responder (Byte)
system.iobus.pktSize_system.ruby.l1_cntrl2.sequencer.mem-request-port::total           20                       # Cumulative packet size per connected requestor and responder (Byte)
system.iobus.pktSize_system.ruby.l1_cntrl3.sequencer.mem-request-port::system.ruby.l1_cntrl3.sequencer.pio-response-port           20                       # Cumulative packet size per connected requestor and responder (Byte)
system.iobus.pktSize_system.ruby.l1_cntrl3.sequencer.mem-request-port::total           20                       # Cumulative packet size per connected requestor and responder (Byte)
system.iobus.pktSize::total                        96                       # Cumulative packet size per connected requestor and responder (Byte)
system.iobus.power_state.pwrStateResidencyTicks::UNDEFINED 5021439308892                       # Cumulative time (in ticks) in various power states (Tick)
system.iobus.reqLayer15.occupancy               15225                       # Layer occupancy (ticks) (Tick)
system.iobus.reqLayer15.utilization               0.0                       # Layer utilization (Ratio)
system.iobus.reqLayer16.occupancy               15467                       # Layer occupancy (ticks) (Tick)
system.iobus.reqLayer16.utilization               0.0                       # Layer utilization (Ratio)
system.iobus.reqLayer17.occupancy               13777                       # Layer occupancy (ticks) (Tick)
system.iobus.reqLayer17.utilization               0.0                       # Layer utilization (Ratio)
system.iobus.reqLayer18.occupancy               14499                       # Layer occupancy (ticks) (Tick)
system.iobus.reqLayer18.utilization               0.0                       # Layer utilization (Ratio)
system.iobus.respLayer0.occupancy                6848                       # Layer occupancy (ticks) (Tick)
system.iobus.respLayer0.utilization               0.0                       # Layer utilization (Ratio)
system.iobus.respLayer3.occupancy                7500                       # Layer occupancy (ticks) (Tick)
system.iobus.respLayer3.utilization               0.0                       # Layer utilization (Ratio)
system.iobus.respLayer5.occupancy                7500                       # Layer occupancy (ticks) (Tick)
system.iobus.respLayer5.utilization               0.0                       # Layer utilization (Ratio)
system.iobus.respLayer7.occupancy                7500                       # Layer occupancy (ticks) (Tick)
system.iobus.respLayer7.utilization               0.0                       # Layer utilization (Ratio)
system.iobus.respLayer9.occupancy                7500                       # Layer occupancy (ticks) (Tick)
system.iobus.respLayer9.utilization               0.0                       # Layer utilization (Ratio)
system.mem_ctrls0.avgPriority_ruby.dir_cntrl0::samples      2244.00                       # Average QoS priority value for accepted requests (Count)
system.mem_ctrls0.priorityMinLatency     0.000000018750                       # per QoS priority minimum request to response latency (Second)
system.mem_ctrls0.priorityMaxLatency     0.000000581500                       # per QoS priority maximum request to response latency (Second)
system.mem_ctrls0.numReadWriteTurnArounds            0                       # Number of turnarounds from READ to WRITE (Count)
system.mem_ctrls0.numWriteReadTurnArounds            0                       # Number of turnarounds from WRITE to READ (Count)
system.mem_ctrls0.numStayReadState               8319                       # Number of times bus staying in READ state (Count)
system.mem_ctrls0.numStayWriteState                 0                       # Number of times bus staying in WRITE state (Count)
system.mem_ctrls0.readReqs                       2244                       # Number of read requests accepted (Count)
system.mem_ctrls0.writeReqs                         0                       # Number of write requests accepted (Count)
system.mem_ctrls0.readBursts                     2244                       # Number of controller read bursts, including those serviced by the write queue (Count)
system.mem_ctrls0.writeBursts                       0                       # Number of controller write bursts, including those merged in the write queue (Count)
system.mem_ctrls0.servicedByWrQ                     0                       # Number of controller read bursts serviced by the write queue (Count)
system.mem_ctrls0.mergedWrBursts                    0                       # Number of controller write bursts merged with an existing one (Count)
system.mem_ctrls0.neitherReadNorWriteReqs            0                       # Number of requests that are neither read nor write (Count)
system.mem_ctrls0.avgRdQLen                      1.00                       # Average read queue length when enqueuing ((Count/Tick))
system.mem_ctrls0.avgWrQLen                      0.00                       # Average write queue length when enqueuing ((Count/Tick))
system.mem_ctrls0.numRdRetry                        0                       # Number of times read queue was full causing retry (Count)
system.mem_ctrls0.numWrRetry                        0                       # Number of times write queue was full causing retry (Count)
system.mem_ctrls0.readPktSize::0                    0                       # Read request sizes (log2) (Count)
system.mem_ctrls0.readPktSize::1                    0                       # Read request sizes (log2) (Count)
system.mem_ctrls0.readPktSize::2                    0                       # Read request sizes (log2) (Count)
system.mem_ctrls0.readPktSize::3                    0                       # Read request sizes (log2) (Count)
system.mem_ctrls0.readPktSize::4                    0                       # Read request sizes (log2) (Count)
system.mem_ctrls0.readPktSize::5                    0                       # Read request sizes (log2) (Count)
system.mem_ctrls0.readPktSize::6                 2244                       # Read request sizes (log2) (Count)
system.mem_ctrls0.writePktSize::0                   0                       # Write request sizes (log2) (Count)
system.mem_ctrls0.writePktSize::1                   0                       # Write request sizes (log2) (Count)
system.mem_ctrls0.writePktSize::2                   0                       # Write request sizes (log2) (Count)
system.mem_ctrls0.writePktSize::3                   0                       # Write request sizes (log2) (Count)
system.mem_ctrls0.writePktSize::4                   0                       # Write request sizes (log2) (Count)
system.mem_ctrls0.writePktSize::5                   0                       # Write request sizes (log2) (Count)
system.mem_ctrls0.writePktSize::6                   0                       # Write request sizes (log2) (Count)
system.mem_ctrls0.rdQLenPdf::0                   1956                       # What read queue length does an incoming req see (Count)
system.mem_ctrls0.rdQLenPdf::1                    267                       # What read queue length does an incoming req see (Count)
system.mem_ctrls0.rdQLenPdf::2                     20                       # What read queue length does an incoming req see (Count)
system.mem_ctrls0.rdQLenPdf::3                      1                       # What read queue length does an incoming req see (Count)
system.mem_ctrls0.rdQLenPdf::4                      0                       # What read queue length does an incoming req see (Count)
system.mem_ctrls0.rdQLenPdf::5                      0                       # What read queue length does an incoming req see (Count)
system.mem_ctrls0.rdQLenPdf::6                      0                       # What read queue length does an incoming req see (Count)
system.mem_ctrls0.rdQLenPdf::7                      0                       # What read queue length does an incoming req see (Count)
system.mem_ctrls0.rdQLenPdf::8                      0                       # What read queue length does an incoming req see (Count)
system.mem_ctrls0.rdQLenPdf::9                      0                       # What read queue length does an incoming req see (Count)
system.mem_ctrls0.rdQLenPdf::10                     0                       # What read queue length does an incoming req see (Count)
system.mem_ctrls0.rdQLenPdf::11                     0                       # What read queue length does an incoming req see (Count)
system.mem_ctrls0.rdQLenPdf::12                     0                       # What read queue length does an incoming req see (Count)
system.mem_ctrls0.rdQLenPdf::13                     0                       # What read queue length does an incoming req see (Count)
system.mem_ctrls0.rdQLenPdf::14                     0                       # What read queue length does an incoming req see (Count)
system.mem_ctrls0.rdQLenPdf::15                     0                       # What read queue length does an incoming req see (Count)
system.mem_ctrls0.rdQLenPdf::16                     0                       # What read queue length does an incoming req see (Count)
system.mem_ctrls0.rdQLenPdf::17                     0                       # What read queue length does an incoming req see (Count)
system.mem_ctrls0.rdQLenPdf::18                     0                       # What read queue length does an incoming req see (Count)
system.mem_ctrls0.rdQLenPdf::19                     0                       # What read queue length does an incoming req see (Count)
system.mem_ctrls0.rdQLenPdf::20                     0                       # What read queue length does an incoming req see (Count)
system.mem_ctrls0.rdQLenPdf::21                     0                       # What read queue length does an incoming req see (Count)
system.mem_ctrls0.rdQLenPdf::22                     0                       # What read queue length does an incoming req see (Count)
system.mem_ctrls0.rdQLenPdf::23                     0                       # What read queue length does an incoming req see (Count)
system.mem_ctrls0.rdQLenPdf::24                     0                       # What read queue length does an incoming req see (Count)
system.mem_ctrls0.rdQLenPdf::25                     0                       # What read queue length does an incoming req see (Count)
system.mem_ctrls0.rdQLenPdf::26                     0                       # What read queue length does an incoming req see (Count)
system.mem_ctrls0.rdQLenPdf::27                     0                       # What read queue length does an incoming req see (Count)
system.mem_ctrls0.rdQLenPdf::28                     0                       # What read queue length does an incoming req see (Count)
system.mem_ctrls0.rdQLenPdf::29                     0                       # What read queue length does an incoming req see (Count)
system.mem_ctrls0.rdQLenPdf::30                     0                       # What read queue length does an incoming req see (Count)
system.mem_ctrls0.rdQLenPdf::31                     0                       # What read queue length does an incoming req see (Count)
system.mem_ctrls0.wrQLenPdf::0                      0                       # What write queue length does an incoming req see (Count)
system.mem_ctrls0.wrQLenPdf::1                      0                       # What write queue length does an incoming req see (Count)
system.mem_ctrls0.wrQLenPdf::2                      0                       # What write queue length does an incoming req see (Count)
system.mem_ctrls0.wrQLenPdf::3                      0                       # What write queue length does an incoming req see (Count)
system.mem_ctrls0.wrQLenPdf::4                      0                       # What write queue length does an incoming req see (Count)
system.mem_ctrls0.wrQLenPdf::5                      0                       # What write queue length does an incoming req see (Count)
system.mem_ctrls0.wrQLenPdf::6                      0                       # What write queue length does an incoming req see (Count)
system.mem_ctrls0.wrQLenPdf::7                      0                       # What write queue length does an incoming req see (Count)
system.mem_ctrls0.wrQLenPdf::8                      0                       # What write queue length does an incoming req see (Count)
system.mem_ctrls0.wrQLenPdf::9                      0                       # What write queue length does an incoming req see (Count)
system.mem_ctrls0.wrQLenPdf::10                     0                       # What write queue length does an incoming req see (Count)
system.mem_ctrls0.wrQLenPdf::11                     0                       # What write queue length does an incoming req see (Count)
system.mem_ctrls0.wrQLenPdf::12                     0                       # What write queue length does an incoming req see (Count)
system.mem_ctrls0.wrQLenPdf::13                     0                       # What write queue length does an incoming req see (Count)
system.mem_ctrls0.wrQLenPdf::14                     0                       # What write queue length does an incoming req see (Count)
system.mem_ctrls0.wrQLenPdf::15                     0                       # What write queue length does an incoming req see (Count)
system.mem_ctrls0.wrQLenPdf::16                     0                       # What write queue length does an incoming req see (Count)
system.mem_ctrls0.wrQLenPdf::17                     0                       # What write queue length does an incoming req see (Count)
system.mem_ctrls0.wrQLenPdf::18                     0                       # What write queue length does an incoming req see (Count)
system.mem_ctrls0.wrQLenPdf::19                     0                       # What write queue length does an incoming req see (Count)
system.mem_ctrls0.wrQLenPdf::20                     0                       # What write queue length does an incoming req see (Count)
system.mem_ctrls0.wrQLenPdf::21                     0                       # What write queue length does an incoming req see (Count)
system.mem_ctrls0.wrQLenPdf::22                     0                       # What write queue length does an incoming req see (Count)
system.mem_ctrls0.wrQLenPdf::23                     0                       # What write queue length does an incoming req see (Count)
system.mem_ctrls0.wrQLenPdf::24                     0                       # What write queue length does an incoming req see (Count)
system.mem_ctrls0.wrQLenPdf::25                     0                       # What write queue length does an incoming req see (Count)
system.mem_ctrls0.wrQLenPdf::26                     0                       # What write queue length does an incoming req see (Count)
system.mem_ctrls0.wrQLenPdf::27                     0                       # What write queue length does an incoming req see (Count)
system.mem_ctrls0.wrQLenPdf::28                     0                       # What write queue length does an incoming req see (Count)
system.mem_ctrls0.wrQLenPdf::29                     0                       # What write queue length does an incoming req see (Count)
system.mem_ctrls0.wrQLenPdf::30                     0                       # What write queue length does an incoming req see (Count)
system.mem_ctrls0.wrQLenPdf::31                     0                       # What write queue length does an incoming req see (Count)
system.mem_ctrls0.wrQLenPdf::32                     0                       # What write queue length does an incoming req see (Count)
system.mem_ctrls0.wrQLenPdf::33                     0                       # What write queue length does an incoming req see (Count)
system.mem_ctrls0.wrQLenPdf::34                     0                       # What write queue length does an incoming req see (Count)
system.mem_ctrls0.wrQLenPdf::35                     0                       # What write queue length does an incoming req see (Count)
system.mem_ctrls0.wrQLenPdf::36                     0                       # What write queue length does an incoming req see (Count)
system.mem_ctrls0.wrQLenPdf::37                     0                       # What write queue length does an incoming req see (Count)
system.mem_ctrls0.wrQLenPdf::38                     0                       # What write queue length does an incoming req see (Count)
system.mem_ctrls0.wrQLenPdf::39                     0                       # What write queue length does an incoming req see (Count)
system.mem_ctrls0.wrQLenPdf::40                     0                       # What write queue length does an incoming req see (Count)
system.mem_ctrls0.wrQLenPdf::41                     0                       # What write queue length does an incoming req see (Count)
system.mem_ctrls0.wrQLenPdf::42                     0                       # What write queue length does an incoming req see (Count)
system.mem_ctrls0.wrQLenPdf::43                     0                       # What write queue length does an incoming req see (Count)
system.mem_ctrls0.wrQLenPdf::44                     0                       # What write queue length does an incoming req see (Count)
system.mem_ctrls0.wrQLenPdf::45                     0                       # What write queue length does an incoming req see (Count)
[...]
system.ruby.network.data_traffic_distribution.n3.n7            0                       (Unspecified)
system.ruby.network.data_traffic_distribution.n3.n8            0                       (Unspecified)
system.ruby.network.data_traffic_distribution.n3.n9            0                       (Unspecified)
system.ruby.network.data_traffic_distribution.n4.n0            0                       (Unspecified)
system.ruby.network.data_traffic_distribution.n4.n1            0                       (Unspecified)
system.ruby.network.data_traffic_distribution.n4.n10            0                       (Unspecified)
system.ruby.network.data_traffic_distribution.n4.n11            0                       (Unspecified)
system.ruby.network.data_traffic_distribution.n4.n12            0                       (Unspecified)
system.ruby.network.data_traffic_distribution.n4.n13            0                       (Unspecified)
system.ruby.network.data_traffic_distribution.n4.n14            0                       (Unspecified)
system.ruby.network.data_traffic_distribution.n4.n15            0                       (Unspecified)
system.ruby.network.data_traffic_distribution.n4.n2            0                       (Unspecified)
system.ruby.network.data_traffic_distribution.n4.n3            0                       (Unspecified)
system.ruby.network.data_traffic_distribution.n4.n4            0                       (Unspecified)
system.ruby.network.data_traffic_distribution.n4.n5            0                       (Unspecified)
system.ruby.network.data_traffic_distribution.n4.n6            0                       (Unspecified)
system.ruby.network.data_traffic_distribution.n4.n7            0                       (Unspecified)
system.ruby.network.data_traffic_distribution.n4.n8            0                       (Unspecified)
system.ruby.network.data_traffic_distribution.n4.n9            0                       (Unspecified)
system.ruby.network.data_traffic_distribution.n5.n0            0                       (Unspecified)
system.ruby.network.data_traffic_distribution.n5.n1            0                       (Unspecified)
system.ruby.network.data_traffic_distribution.n5.n10            0                       (Unspecified)
system.ruby.network.data_traffic_distribution.n5.n11            0                       (Unspecified)
system.ruby.network.data_traffic_distribution.n5.n12            0                       (Unspecified)
system.ruby.network.data_traffic_distribution.n5.n13            0                       (Unspecified)
system.ruby.network.data_traffic_distribution.n5.n14            0                       (Unspecified)
system.ruby.network.data_traffic_distribution.n5.n15            0                       (Unspecified)
system.ruby.network.data_traffic_distribution.n5.n2            0                       (Unspecified)
system.ruby.network.data_traffic_distribution.n5.n3            0                       (Unspecified)
system.ruby.network.data_traffic_distribution.n5.n4            0                       (Unspecified)
system.ruby.network.data_traffic_distribution.n5.n5            0                       (Unspecified)
system.ruby.network.data_traffic_distribution.n5.n6            0                       (Unspecified)
system.ruby.network.data_traffic_distribution.n5.n7            0                       (Unspecified)
system.ruby.network.data_traffic_distribution.n5.n8            0                       (Unspecified)
system.ruby.network.data_traffic_distribution.n5.n9            0                       (Unspecified)
system.ruby.network.data_traffic_distribution.n6.n0            0                       (Unspecified)
system.ruby.network.data_traffic_distribution.n6.n1            0                       (Unspecified)
system.ruby.network.data_traffic_distribution.n6.n10            0                       (Unspecified)
system.ruby.network.data_traffic_distribution.n6.n11            0                       (Unspecified)
system.ruby.network.data_traffic_distribution.n6.n12            0                       (Unspecified)
system.ruby.network.data_traffic_distribution.n6.n13            0                       (Unspecified)
system.ruby.network.data_traffic_distribution.n6.n14            0                       (Unspecified)
system.ruby.network.data_traffic_distribution.n6.n15            0                       (Unspecified)
system.ruby.network.data_traffic_distribution.n6.n2            0                       (Unspecified)
system.ruby.network.data_traffic_distribution.n6.n3            0                       (Unspecified)
system.ruby.network.data_traffic_distribution.n6.n4            0                       (Unspecified)
system.ruby.network.data_traffic_distribution.n6.n5            0                       (Unspecified)
system.ruby.network.data_traffic_distribution.n6.n6            0                       (Unspecified)
system.ruby.network.data_traffic_distribution.n6.n7            0                       (Unspecified)
system.ruby.network.data_traffic_distribution.n6.n8            0                       (Unspecified)
system.ruby.network.data_traffic_distribution.n6.n9            0                       (Unspecified)
system.ruby.network.data_traffic_distribution.n7.n0            0                       (Unspecified)
system.ruby.network.data_traffic_distribution.n7.n1            0                       (Unspecified)
system.ruby.network.data_traffic_distribution.n7.n10            0                       (Unspecified)
system.ruby.network.data_traffic_distribution.n7.n11            0                       (Unspecified)
system.ruby.network.data_traffic_distribution.n7.n12            0                       (Unspecified)
system.ruby.network.data_traffic_distribution.n7.n13            0                       (Unspecified)
system.ruby.network.data_traffic_distribution.n7.n14            0                       (Unspecified)
system.ruby.network.data_traffic_distribution.n7.n15            0                       (Unspecified)
system.ruby.network.data_traffic_distribution.n7.n2            0                       (Unspecified)
system.ruby.network.data_traffic_distribution.n7.n3            0                       (Unspecified)
system.ruby.network.data_traffic_distribution.n7.n4            0                       (Unspecified)
system.ruby.network.data_traffic_distribution.n7.n5            0                       (Unspecified)
system.ruby.network.data_traffic_distribution.n7.n6            0                       (Unspecified)
system.ruby.network.data_traffic_distribution.n7.n7            0                       (Unspecified)
system.ruby.network.data_traffic_distribution.n7.n8            0                       (Unspecified)
system.ruby.network.data_traffic_distribution.n7.n9            0                       (Unspecified)
system.ruby.network.data_traffic_distribution.n8.n0            0                       (Unspecified)
system.ruby.network.data_traffic_distribution.n8.n1            0                       (Unspecified)
system.ruby.network.data_traffic_distribution.n8.n10            0                       (Unspecified)
system.ruby.network.data_traffic_distribution.n8.n11            0                       (Unspecified)
system.ruby.network.data_traffic_distribution.n8.n12            0                       (Unspecified)
system.ruby.network.data_traffic_distribution.n8.n13            0                       (Unspecified)
system.ruby.network.data_traffic_distribution.n8.n14            0                       (Unspecified)
system.ruby.network.data_traffic_distribution.n8.n15            0                       (Unspecified)
system.ruby.network.data_traffic_distribution.n8.n2            0                       (Unspecified)
system.ruby.network.data_traffic_distribution.n8.n3            0                       (Unspecified)
system.ruby.network.data_traffic_distribution.n8.n4            0                       (Unspecified)
system.ruby.network.data_traffic_distribution.n8.n5            0                       (Unspecified)
system.ruby.network.data_traffic_distribution.n8.n6            0                       (Unspecified)
system.ruby.network.data_traffic_distribution.n8.n7            0                       (Unspecified)
system.ruby.network.data_traffic_distribution.n8.n8            0                       (Unspecified)
system.ruby.network.data_traffic_distribution.n8.n9            0                       (Unspecified)
system.ruby.network.data_traffic_distribution.n9.n0            0                       (Unspecified)
system.ruby.network.data_traffic_distribution.n9.n1            0                       (Unspecified)
system.ruby.network.data_traffic_distribution.n9.n10            0                       (Unspecified)
system.ruby.network.data_traffic_distribution.n9.n11            0                       (Unspecified)
system.ruby.network.data_traffic_distribution.n9.n12            0                       (Unspecified)
system.ruby.network.data_traffic_distribution.n9.n13            0                       (Unspecified)
system.ruby.network.data_traffic_distribution.n9.n14            0                       (Unspecified)
system.ruby.network.data_traffic_distribution.n9.n15            0                       (Unspecified)
system.ruby.network.data_traffic_distribution.n9.n2            0                       (Unspecified)
system.ruby.network.data_traffic_distribution.n9.n3            0                       (Unspecified)
system.ruby.network.data_traffic_distribution.n9.n4            0                       (Unspecified)
system.ruby.network.data_traffic_distribution.n9.n5            0                       (Unspecified)
system.ruby.network.data_traffic_distribution.n9.n6            0                       (Unspecified)
system.ruby.network.data_traffic_distribution.n9.n7            0                       (Unspecified)
system.ruby.network.data_traffic_distribution.n9.n8            0                       (Unspecified)
system.ruby.network.data_traffic_distribution.n9.n9            0                       (Unspecified)
system.ruby.network.ext_in_link_utilization      5196457                       (Unspecified)
system.ruby.network.ext_out_link_utilization      5196457                       (Unspecified)
system.ruby.network.flit_network_latency | 11241949500                       |    75529000                       | 13545622500                       (Unspecified)
system.ruby.network.flit_queueing_latency |   820727647                       |     4428000                       |  6303643550                       (Unspecified)
system.ruby.network.flits_injected       |     1186840     45.68%     45.68% |        8856      0.34%     46.02% |     1402545     53.98%    100.00% (Unspecified)
system.ruby.network.flits_injected::total      2598241                       (Unspecified)
system.ruby.network.flits_received       |     1186840     45.68%     45.68% |        8856      0.34%     46.02% |     1402544     53.98%    100.00% (Unspecified)
system.ruby.network.flits_received::total      2598240                       (Unspecified)
system.ruby.network.int_link_utilization     11738472                       (Unspecified)
system.ruby.network.packet_network_latency |  9051904000                       |    75529000                       | 10558516000                       (Unspecified)
system.ruby.network.packet_queueing_latency |   684609208                       |     4428000                       |  3339405676                       (Unspecified)
system.ruby.network.packets_injected     |      932502     46.55%     46.55% |        8856      0.44%     47.00% |     1061714     53.00%    100.00% (Unspecified)
system.ruby.network.packets_injected::total      2003072                       (Unspecified)
system.ruby.network.packets_received     |      932502     46.55%     46.55% |        8856      0.44%     47.00% |     1061713     53.00%    100.00% (Unspecified)
system.ruby.network.packets_received::total      2003071                       (Unspecified)
system.ruby.network.routers00.buffer_reads      2576935                       (Unspecified)
system.ruby.network.routers00.buffer_writes      2576935                       (Unspecified)
system.ruby.network.routers00.crossbar_activity      1288472                       (Unspecified)
system.ruby.network.routers00.sw_input_arbiter_activity      1293899                       (Unspecified)
system.ruby.network.routers00.sw_output_arbiter_activity      1288472                       (Unspecified)
system.ruby.network.routers01.buffer_reads       804335                       (Unspecified)
system.ruby.network.routers01.buffer_writes       804335                       (Unspecified)
system.ruby.network.routers01.crossbar_activity       402168                       (Unspecified)
system.ruby.network.routers01.sw_input_arbiter_activity       402168                       (Unspecified)
system.ruby.network.routers01.sw_output_arbiter_activity       402168                       (Unspecified)
system.ruby.network.routers02.buffer_reads       566716                       (Unspecified)
system.ruby.network.routers02.buffer_writes       566716                       (Unspecified)
system.ruby.network.routers02.crossbar_activity       283358                       (Unspecified)
system.ruby.network.routers02.sw_input_arbiter_activity       283358                       (Unspecified)
system.ruby.network.routers02.sw_output_arbiter_activity       283358                       (Unspecified)
system.ruby.network.routers03.buffer_reads       782550                       (Unspecified)
system.ruby.network.routers03.buffer_writes       782550                       (Unspecified)
system.ruby.network.routers03.crossbar_activity       391275                       (Unspecified)
system.ruby.network.routers03.sw_input_arbiter_activity       391275                       (Unspecified)
system.ruby.network.routers03.sw_output_arbiter_activity       391275                       (Unspecified)
system.ruby.network.routers04.buffer_reads       804335                       (Unspecified)
system.ruby.network.routers04.buffer_writes       804335                       (Unspecified)
system.ruby.network.routers04.crossbar_activity       402168                       (Unspecified)
system.ruby.network.routers04.sw_input_arbiter_activity       402168                       (Unspecified)
system.ruby.network.routers04.sw_output_arbiter_activity       402168                       (Unspecified)
system.ruby.network.routers05.buffer_reads      2451760                       (Unspecified)
system.ruby.network.routers05.buffer_writes      2451760                       (Unspecified)
system.ruby.network.routers05.crossbar_activity      1225884                       (Unspecified)
system.ruby.network.routers05.sw_input_arbiter_activity      1230642                       (Unspecified)
system.ruby.network.routers05.sw_output_arbiter_activity      1225884                       (Unspecified)
system.ruby.network.routers06.buffer_reads       526520                       (Unspecified)
system.ruby.network.routers06.buffer_writes       526520                       (Unspecified)
system.ruby.network.routers06.crossbar_activity       263260                       (Unspecified)
system.ruby.network.routers06.sw_input_arbiter_activity       263260                       (Unspecified)
system.ruby.network.routers06.sw_output_arbiter_activity       263260                       (Unspecified)
system.ruby.network.routers07.buffer_reads       752211                       (Unspecified)
system.ruby.network.routers07.buffer_writes       752211                       (Unspecified)
system.ruby.network.routers07.crossbar_activity       376109                       (Unspecified)
system.ruby.network.routers07.sw_input_arbiter_activity       376109                       (Unspecified)
system.ruby.network.routers07.sw_output_arbiter_activity       376109                       (Unspecified)
system.ruby.network.routers08.buffer_reads       566716                       (Unspecified)
system.ruby.network.routers08.buffer_writes       566716                       (Unspecified)
system.ruby.network.routers08.crossbar_activity       283358                       (Unspecified)
system.ruby.network.routers08.sw_input_arbiter_activity       283358                       (Unspecified)
system.ruby.network.routers08.sw_output_arbiter_activity       283358                       (Unspecified)
system.ruby.network.routers09.buffer_reads       526520                       (Unspecified)
system.ruby.network.routers09.buffer_writes       526520                       (Unspecified)
system.ruby.network.routers09.crossbar_activity       263260                       (Unspecified)
system.ruby.network.routers09.sw_input_arbiter_activity       263260                       (Unspecified)
system.ruby.network.routers09.sw_output_arbiter_activity       263260                       (Unspecified)
system.ruby.network.routers10.buffer_reads      1714224                       (Unspecified)
system.ruby.network.routers10.buffer_writes      1714224                       (Unspecified)
system.ruby.network.routers10.crossbar_activity       857112                       (Unspecified)
system.ruby.network.routers10.sw_input_arbiter_activity       861520                       (Unspecified)
system.ruby.network.routers10.sw_output_arbiter_activity       857112                       (Unspecified)
system.ruby.network.routers11.buffer_reads       480492                       (Unspecified)
system.ruby.network.routers11.buffer_writes       480492                       (Unspecified)
system.ruby.network.routers11.crossbar_activity       240246                       (Unspecified)
system.ruby.network.routers11.sw_input_arbiter_activity       240246                       (Unspecified)
system.ruby.network.routers11.sw_output_arbiter_activity       240246                       (Unspecified)
system.ruby.network.routers12.buffer_reads       782550                       (Unspecified)
system.ruby.network.routers12.buffer_writes       782550                       (Unspecified)
system.ruby.network.routers12.crossbar_activity       391275                       (Unspecified)
system.ruby.network.routers12.sw_input_arbiter_activity       391275                       (Unspecified)
system.ruby.network.routers12.sw_output_arbiter_activity       391275                       (Unspecified)
system.ruby.network.routers13.buffer_reads       752211                       (Unspecified)
system.ruby.network.routers13.buffer_writes       752211                       (Unspecified)
system.ruby.network.routers13.crossbar_activity       376109                       (Unspecified)
system.ruby.network.routers13.sw_input_arbiter_activity       376109                       (Unspecified)
system.ruby.network.routers13.sw_output_arbiter_activity       376109                       (Unspecified)
system.ruby.network.routers14.buffer_reads       480492                       (Unspecified)
system.ruby.network.routers14.buffer_writes       480492                       (Unspecified)
system.ruby.network.routers14.crossbar_activity       240246                       (Unspecified)
system.ruby.network.routers14.sw_input_arbiter_activity       240246                       (Unspecified)
system.ruby.network.routers14.sw_output_arbiter_activity       240246                       (Unspecified)
system.ruby.network.routers15.buffer_reads      2366364                       (Unspecified)
system.ruby.network.routers15.buffer_writes      2366364                       (Unspecified)
system.ruby.network.routers15.crossbar_activity      1183189                       (Unspecified)
system.ruby.network.routers15.sw_input_arbiter_activity      1187894                       (Unspecified)
system.ruby.network.routers15.sw_output_arbiter_activity      1183189                       (Unspecified)

---------- End Simulation Statistics   ----------
